/*---------------------------------------------------------------------------*\
| =========                 |                                                 |
| \\      /  F ield         | OpenFOAM: The Open Source CFD Toolbox           |
|  \\    /   O peration     | Version:  2212                                  |
|   \\  /    A nd           | Website:  www.openfoam.com                      |
|    \\/     M anipulation  |                                                 |
\*---------------------------------------------------------------------------*/
Build  : 70dc4e522-20230214 OPENFOAM=2212 version=v2212
Arch   : "LSB;label=32;scalar=64"
Exec   : D:\SimFlow\SimFlow\OpenFOAM-2212\bin\simpleFoam
Date   : Jun 25 2025
Time   : 13:47:22
Host   : WENNAIXIN
PID    : 33820
I/O    : uncollated
Case   : C:/Users/27590/SimFlow-Workspaces/Workspace-jdr5r1/My_Cases/propeller_model/propeller_model
nProcs : 1
trapFpe: Floating point exception trapping enabled (FOAM_SIGFPE).
fileModificationChecking : Monitoring run-time modified files using timeStampMaster (fileModificationSkew 5, maxFileModificationPolls 20)
allowSystemOperations : Allowing user-supplied system call operations

// * * * * * * * * * * * * * * * * * * * * * * * * * * * * * * * * * * * * * //
Create time

Overriding OptimisationSwitches according to controlDict
    fileHandler (unregistered)
    fileModificationSkew 0;

    maxMasterFileBufferSize 1e+09;

    maxThreadFileBufferSize 1e+09;

    mpiBufferSize (unregistered)
Create mesh for time = 0


SIMPLE: convergence criteria
    field p	 tolerance 0.0001
    field U	 tolerance 0.0001
    field k	 tolerance 0.0001
    field epsilon	 tolerance 0.0001

Reading field p

AMI: Creating addressing and weights between 5680 source faces and 5408 target faces
AMI: Patch source sum(weights) min:0.9000587 max:1 average:0.9998899
AMI: Patch target sum(weights) min:0.8266525 max:1.000001 average:0.9998844
Reading field U

Reading/calculating face flux field phi

Selecting incompressible transport model Newtonian
Selecting turbulence model type RAS
Selecting RAS turbulence model realizableKE
realizableKECoeffs
{
    Cmu             0.09;
    sigmak          1;
    sigmaEps        1.2;
    A0              4;
    C2              1.9;
}

Creating MRF zone list from MRFProperties
    creating MRF zone: external
Creating finite volume options from "system/fvOptions"

No finite volume options present

Starting time loop

forces forceMonitorOnPropellerInDefault:
    p: p
    U: U
    rho: rhoInf
    Freestream density (rhoInf) set to 1
    Not including porosity effects

Time = 1

DILUPBiCGStab:  Solving for Ux, Initial residual = 1, Final residual = 0.04802275, No Iterations 1
DILUPBiCGStab:  Solving for Uy, Initial residual = 1, Final residual = 0.01734821, No Iterations 1
DILUPBiCGStab:  Solving for Uz, Initial residual = 1, Final residual = 0.0176269, No Iterations 1
GAMG:  Solving for p, Initial residual = 1, Final residual = 0.006928182, No Iterations 9
GAMG:  Solving for p, Initial residual = 0.01076923, Final residual = 5.014881e-05, No Iterations 4
time step continuity errors : sum local = 0.009256284, global = -0.0002745913, cumulative = -0.0002745913
ExecutionTime = 1.066 s  ClockTime = 1 s

forces forceMonitorOnPropellerInDefault write:
    Sum of forces
        Total    : (-0.09785577 -0.04107572 0.06189137)
        Pressure : (-0.09794757 -0.03752419 0.05810756)
        Viscous  : (9.179852e-05 -0.003551525 0.00378381)
    Sum of moments
        Total    : (0.009533162 -0.04941426 -0.01782645)
        Pressure : (0.008820848 -0.04706266 -0.01556854)
        Viscous  : (0.000712314 -0.002351604 -0.002257919)
    writing force and moment files.

Time = 2

DILUPBiCGStab:  Solving for Ux, Initial residual = 0.007352905, Final residual = 0.0004322415, No Iterations 1
DILUPBiCGStab:  Solving for Uy, Initial residual = 0.01665687, Final residual = 0.0006665794, No Iterations 1
DILUPBiCGStab:  Solving for Uz, Initial residual = 0.01155157, Final residual = 0.0004220935, No Iterations 1
GAMG:  Solving for p, Initial residual = 0.9853637, Final residual = 0.009315926, No Iterations 6
GAMG:  Solving for p, Initial residual = 0.1186481, Final residual = 0.0009112199, No Iterations 4
time step continuity errors : sum local = 0.0047064, global = -0.0005050038, cumulative = -0.0007795951
ExecutionTime = 1.56 s  ClockTime = 1 s

forces forceMonitorOnPropellerInDefault write:
    Sum of forces
        Total    : (-29.84309 -8.978698 16.11285)
        Pressure : (-29.84376 -8.975594 16.10951)
        Viscous  : (0.0006697027 -0.003103978 0.003333361)
    Sum of moments
        Total    : (2.678327 -13.42248 -2.940644)
        Pressure : (2.677693 -13.42049 -2.938625)
        Viscous  : (0.0006341668 -0.001993568 -0.002018954)
    writing force and moment files.

Time = 3

DILUPBiCGStab:  Solving for Ux, Initial residual = 0.004603601, Final residual = 0.000389857, No Iterations 1
DILUPBiCGStab:  Solving for Uy, Initial residual = 0.007967315, Final residual = 0.0005908885, No Iterations 1
DILUPBiCGStab:  Solving for Uz, Initial residual = 0.006176192, Final residual = 0.0003760692, No Iterations 1
GAMG:  Solving for p, Initial residual = 0.154124, Final residual = 0.0009351372, No Iterations 6
GAMG:  Solving for p, Initial residual = 0.03587583, Final residual = 0.0002140551, No Iterations 4
time step continuity errors : sum local = 0.001403739, global = -0.0002711199, cumulative = -0.001050715
ExecutionTime = 2.068 s  ClockTime = 2 s

forces forceMonitorOnPropellerInDefault write:
    Sum of forces
        Total    : (-27.3934 -7.113126 15.21928)
        Pressure : (-27.3946 -7.110423 15.21635)
        Viscous  : (0.001194372 -0.002703173 0.002934059)
    Sum of moments
        Total    : (2.437067 -12.39877 -1.829371)
        Pressure : (2.436502 -12.39709 -1.827564)
        Viscous  : (0.0005649022 -0.0016788 -0.001807329)
    writing force and moment files.

Time = 4

DILUPBiCGStab:  Solving for Ux, Initial residual = 0.003057848, Final residual = 0.0002628883, No Iterations 1
DILUPBiCGStab:  Solving for Uy, Initial residual = 0.004841722, Final residual = 0.0003968915, No Iterations 1
DILUPBiCGStab:  Solving for Uz, Initial residual = 0.003864261, Final residual = 0.0002314647, No Iterations 1
GAMG:  Solving for p, Initial residual = 0.109242, Final residual = 0.0006096962, No Iterations 6
GAMG:  Solving for p, Initial residual = 0.0334315, Final residual = 0.0002503472, No Iterations 4
time step continuity errors : sum local = 0.001772417, global = 0.0001775979, cumulative = -0.0008731172
ExecutionTime = 2.562 s  ClockTime = 2 s

forces forceMonitorOnPropellerInDefault write:
    Sum of forces
        Total    : (-18.86329 -3.631397 10.99781)
        Pressure : (-18.8648 -3.629016 10.99515)
        Viscous  : (0.001510329 -0.002380504 0.00265877)
    Sum of moments
        Total    : (1.645224 -8.661469 -0.3096092)
        Pressure : (1.644711 -8.660001 -0.3079813)
        Viscous  : (0.0005131375 -0.001468553 -0.001627899)
    writing force and moment files.

Time = 5

DILUPBiCGStab:  Solving for Ux, Initial residual = 0.002307223, Final residual = 0.0002285619, No Iterations 1
DILUPBiCGStab:  Solving for Uy, Initial residual = 0.003413841, Final residual = 0.0002878147, No Iterations 1
DILUPBiCGStab:  Solving for Uz, Initial residual = 0.002831392, Final residual = 0.0001630253, No Iterations 1
GAMG:  Solving for p, Initial residual = 0.09464826, Final residual = 0.0007925895, No Iterations 5
GAMG:  Solving for p, Initial residual = 0.01900186, Final residual = 9.25871e-05, No Iterations 5
time step continuity errors : sum local = 0.0007047315, global = 0.0001048167, cumulative = -0.0007683005
ExecutionTime = 3.056 s  ClockTime = 3 s

forces forceMonitorOnPropellerInDefault write:
    Sum of forces
        Total    : (-14.24377 -1.923781 8.675085)
        Pressure : (-14.24544 -1.921686 8.672591)
        Viscous  : (0.001664847 -0.002095655 0.00249375)
    Sum of moments
        Total    : (1.216383 -6.675775 0.3549969)
        Pressure : (1.215909 -6.674427 0.3564549)
        Viscous  : (0.0004743768 -0.001347889 -0.001458025)
    writing force and moment files.

Time = 6

DILUPBiCGStab:  Solving for Ux, Initial residual = 0.002023737, Final residual = 6.022496e-05, No Iterations 2
DILUPBiCGStab:  Solving for Uy, Initial residual = 0.002742712, Final residual = 0.0002247155, No Iterations 1
DILUPBiCGStab:  Solving for Uz, Initial residual = 0.002390765, Final residual = 0.0001423559, No Iterations 1
GAMG:  Solving for p, Initial residual = 0.07756315, Final residual = 0.0005283001, No Iterations 5
GAMG:  Solving for p, Initial residual = 0.01147917, Final residual = 5.850948e-05, No Iterations 5
time step continuity errors : sum local = 0.0004940958, global = 8.535782e-05, cumulative = -0.0006829427
ExecutionTime = 3.562 s  ClockTime = 3 s

forces forceMonitorOnPropellerInDefault write:
    Sum of forces
        Total    : (-13.32224 -1.701902 8.230845)
        Pressure : (-13.32395 -1.700071 8.228406)
        Viscous  : (0.001702385 -0.001831087 0.002438996)
    Sum of moments
        Total    : (1.133228 -6.345819 0.375452)
        Pressure : (1.132781 -6.344508 0.376742)
        Viscous  : (0.0004471425 -0.001310745 -0.001290016)
    writing force and moment files.

Time = 7

DILUPBiCGStab:  Solving for Ux, Initial residual = 0.001871643, Final residual = 5.351435e-05, No Iterations 2
DILUPBiCGStab:  Solving for Uy, Initial residual = 0.002380443, Final residual = 0.0001892913, No Iterations 1
DILUPBiCGStab:  Solving for Uz, Initial residual = 0.00224922, Final residual = 0.0001380534, No Iterations 1
GAMG:  Solving for p, Initial residual = 0.06087186, Final residual = 0.0003814295, No Iterations 5
GAMG:  Solving for p, Initial residual = 0.00994608, Final residual = 9.609663e-05, No Iterations 4
time step continuity errors : sum local = 0.0008682404, global = 0.0001146175, cumulative = -0.0005683252
ExecutionTime = 4.103 s  ClockTime = 4 s

forces forceMonitorOnPropellerInDefault write:
    Sum of forces
        Total    : (-13.7888 -2.022747 8.512754)
        Pressure : (-13.79049 -2.021143 8.510281)
        Viscous  : (0.00168809 -0.001603954 0.00247341)
    Sum of moments
        Total    : (1.181552 -6.626614 0.1823706)
        Pressure : (1.181121 -6.625278 0.1835108)
        Viscous  : (0.0004309652 -0.001335848 -0.001140186)
    writing force and moment files.

Time = 8

DILUPBiCGStab:  Solving for Ux, Initial residual = 0.00174641, Final residual = 4.663331e-05, No Iterations 2
DILUPBiCGStab:  Solving for Uy, Initial residual = 0.002123365, Final residual = 0.0001677863, No Iterations 1
DILUPBiCGStab:  Solving for Uz, Initial residual = 0.002230163, Final residual = 0.0001384909, No Iterations 1
GAMG:  Solving for p, Initial residual = 0.04834885, Final residual = 0.000274591, No Iterations 5
GAMG:  Solving for p, Initial residual = 0.007814035, Final residual = 7.477063e-05, No Iterations 4
time step continuity errors : sum local = 0.0007095328, global = 0.0001029263, cumulative = -0.0004653989
ExecutionTime = 4.578 s  ClockTime = 4 s

forces forceMonitorOnPropellerInDefault write:
    Sum of forces
        Total    : (-14.25068 -2.332367 8.816483)
        Pressure : (-14.25234 -2.330954 8.813928)
        Viscous  : (0.001664946 -0.001413545 0.002555194)
    Sum of moments
        Total    : (1.230999 -6.895065 0.01084938)
        Pressure : (1.230577 -6.893672 0.01186155)
        Viscous  : (0.0004215691 -0.00139253 -0.001012172)
    writing force and moment files.

Time = 9

DILUPBiCGStab:  Solving for Ux, Initial residual = 0.001615052, Final residual = 0.000148119, No Iterations 1
DILUPBiCGStab:  Solving for Uy, Initial residual = 0.001896355, Final residual = 0.0001487046, No Iterations 1
DILUPBiCGStab:  Solving for Uz, Initial residual = 0.002207372, Final residual = 0.0001342911, No Iterations 1
GAMG:  Solving for p, Initial residual = 0.03816067, Final residual = 0.0002281968, No Iterations 5
GAMG:  Solving for p, Initial residual = 0.006161837, Final residual = 5.693448e-05, No Iterations 4
time step continuity errors : sum local = 0.0005559959, global = 0.000102933, cumulative = -0.0003624659
ExecutionTime = 5.097 s  ClockTime = 5 s

forces forceMonitorOnPropellerInDefault write:
    Sum of forces
        Total    : (-14.38413 -2.513809 8.95485)
        Pressure : (-14.38578 -2.512562 8.952193)
        Viscous  : (0.001650129 -0.001247262 0.00265729)
    Sum of moments
        Total    : (1.250073 -7.003025 -0.09883431)
        Pressure : (1.249658 -7.001563 -0.09793406)
        Viscous  : (0.0004151544 -0.001462014 -0.0009002536)
    writing force and moment files.

Time = 10

DILUPBiCGStab:  Solving for Ux, Initial residual = 0.001483411, Final residual = 0.0001236774, No Iterations 1
DILUPBiCGStab:  Solving for Uy, Initial residual = 0.001689404, Final residual = 0.0001309942, No Iterations 1
DILUPBiCGStab:  Solving for Uz, Initial residual = 0.002178464, Final residual = 0.0001288698, No Iterations 1
GAMG:  Solving for p, Initial residual = 0.0316506, Final residual = 0.0001994155, No Iterations 5
GAMG:  Solving for p, Initial residual = 0.005192291, Final residual = 4.841821e-05, No Iterations 4
time step continuity errors : sum local = 0.0004836462, global = 6.887798e-05, cumulative = -0.0002935879
ExecutionTime = 5.615 s  ClockTime = 5 s

forces forceMonitorOnPropellerInDefault write:
    Sum of forces
        Total    : (-14.27422 -2.600091 8.958427)
        Pressure : (-14.27587 -2.598988 8.955656)
        Viscous  : (0.001644706 -0.001103396 0.002770182)
    Sum of moments
        Total    : (1.24651 -6.992874 -0.1654903)
        Pressure : (1.246099 -6.991336 -0.1646866)
        Viscous  : (0.0004106225 -0.001538009 -0.0008036383)
    writing force and moment files.

Time = 11

DILUPBiCGStab:  Solving for Ux, Initial residual = 0.00135922, Final residual = 0.0001076628, No Iterations 1
DILUPBiCGStab:  Solving for Uy, Initial residual = 0.001516178, Final residual = 0.0001167638, No Iterations 1
DILUPBiCGStab:  Solving for Uz, Initial residual = 0.002147745, Final residual = 0.0001254176, No Iterations 1
GAMG:  Solving for p, Initial residual = 0.02732996, Final residual = 0.0001717847, No Iterations 5
GAMG:  Solving for p, Initial residual = 0.00456402, Final residual = 4.139385e-05, No Iterations 4
time step continuity errors : sum local = 0.0004191442, global = 5.107463e-05, cumulative = -0.0002425133
ExecutionTime = 6.074 s  ClockTime = 6 s

forces forceMonitorOnPropellerInDefault write:
    Sum of forces
        Total    : (-14.10389 -2.660107 8.911591)
        Pressure : (-14.10553 -2.659121 8.908702)
        Viscous  : (0.001646015 -0.0009860859 0.002888169)
    Sum of moments
        Total    : (1.236632 -6.943727 -0.2203214)
        Pressure : (1.236224 -6.942111 -0.2195965)
        Viscous  : (0.0004081159 -0.001616857 -0.0007248638)
    writing force and moment files.

Time = 12

DILUPBiCGStab:  Solving for Ux, Initial residual = 0.001245973, Final residual = 9.601133e-05, No Iterations 1
DILUPBiCGStab:  Solving for Uy, Initial residual = 0.001382063, Final residual = 0.0001065606, No Iterations 1
DILUPBiCGStab:  Solving for Uz, Initial residual = 0.002121925, Final residual = 0.0001224346, No Iterations 1
GAMG:  Solving for p, Initial residual = 0.02389404, Final residual = 0.0001497426, No Iterations 5
GAMG:  Solving for p, Initial residual = 0.004015502, Final residual = 3.6369e-05, No Iterations 4
time step continuity errors : sum local = 0.0003731799, global = 4.822987e-05, cumulative = -0.0001942834
ExecutionTime = 6.554 s  ClockTime = 6 s

forces forceMonitorOnPropellerInDefault write:
    Sum of forces
        Total    : (-13.95503 -2.713316 8.859621)
        Pressure : (-13.95668 -2.712422 8.85662)
        Viscous  : (0.001657699 -0.0008940816 0.003001111)
    Sum of moments
        Total    : (1.228084 -6.894312 -0.2688252)
        Pressure : (1.227677 -6.89262 -0.2681617)
        Viscous  : (0.0004069759 -0.001691794 -0.0006634244)
    writing force and moment files.

Time = 13

DILUPBiCGStab:  Solving for Ux, Initial residual = 0.001149487, Final residual = 8.664534e-05, No Iterations 1
DILUPBiCGStab:  Solving for Uy, Initial residual = 0.001287332, Final residual = 9.926319e-05, No Iterations 1
DILUPBiCGStab:  Solving for Uz, Initial residual = 0.002109088, Final residual = 0.000119012, No Iterations 1
GAMG:  Solving for p, Initial residual = 0.0214268, Final residual = 0.0001331183, No Iterations 5
GAMG:  Solving for p, Initial residual = 0.0035763, Final residual = 3.337827e-05, No Iterations 4
time step continuity errors : sum local = 0.0003475881, global = 4.835138e-05, cumulative = -0.000145932
ExecutionTime = 7.018 s  ClockTime = 7 s

forces forceMonitorOnPropellerInDefault write:
    Sum of forces
        Total    : (-13.82978 -2.751486 8.808031)
        Pressure : (-13.83146 -2.750661 8.804924)
        Viscous  : (0.001681284 -0.0008248546 0.003107012)
    Sum of moments
        Total    : (1.221281 -6.848182 -0.3045934)
        Pressure : (1.220874 -6.846421 -0.3039756)
        Viscous  : (0.0004070757 -0.001761392 -0.0006178006)
    writing force and moment files.

Time = 14

DILUPBiCGStab:  Solving for Ux, Initial residual = 0.001069344, Final residual = 7.867209e-05, No Iterations 1
DILUPBiCGStab:  Solving for Uy, Initial residual = 0.00122121, Final residual = 9.28095e-05, No Iterations 1
DILUPBiCGStab:  Solving for Uz, Initial residual = 0.002104585, Final residual = 0.0001157753, No Iterations 1
GAMG:  Solving for p, Initial residual = 0.0195696, Final residual = 0.0001198913, No Iterations 5
GAMG:  Solving for p, Initial residual = 0.003248907, Final residual = 3.085377e-05, No Iterations 4
time step continuity errors : sum local = 0.000325751, global = 4.669868e-05, cumulative = -9.923333e-05
ExecutionTime = 7.476 s  ClockTime = 7 s

forces forceMonitorOnPropellerInDefault write:
    Sum of forces
        Total    : (-13.71423 -2.768864 8.75333)
        Pressure : (-13.71594 -2.768086 8.750126)
        Viscous  : (0.001713727 -0.0007777523 0.003203321)
    Sum of moments
        Total    : (1.215036 -6.801728 -0.3246871)
        Pressure : (1.214627 -6.799904 -0.3240996)
        Viscous  : (0.0004082469 -0.001824078 -0.0005874296)
    writing force and moment files.

Time = 15

DILUPBiCGStab:  Solving for Ux, Initial residual = 0.001003531, Final residual = 7.240518e-05, No Iterations 1
DILUPBiCGStab:  Solving for Uy, Initial residual = 0.001177167, Final residual = 8.765751e-05, No Iterations 1
DILUPBiCGStab:  Solving for Uz, Initial residual = 0.002105541, Final residual = 0.0001127929, No Iterations 1
GAMG:  Solving for p, Initial residual = 0.01834816, Final residual = 0.000111177, No Iterations 5
GAMG:  Solving for p, Initial residual = 0.002986667, Final residual = 2.858571e-05, No Iterations 4
time step continuity errors : sum local = 0.0003059375, global = 4.435714e-05, cumulative = -5.487619e-05
ExecutionTime = 7.936 s  ClockTime = 8 s

forces forceMonitorOnPropellerInDefault write:
    Sum of forces
        Total    : (-13.5996 -2.76587 8.694779)
        Pressure : (-13.60135 -2.765118 8.69149)
        Viscous  : (0.001752353 -0.0007511318 0.003289223)
    Sum of moments
        Total    : (1.20853 -6.753649 -0.3304717)
        Pressure : (1.208119 -6.751769 -0.3299006)
        Viscous  : (0.0004104467 -0.001879444 -0.0005711317)
    writing force and moment files.

Time = 16

DILUPBiCGStab:  Solving for Ux, Initial residual = 0.0009480229, Final residual = 6.740038e-05, No Iterations 1
DILUPBiCGStab:  Solving for Uy, Initial residual = 0.001149296, Final residual = 8.375293e-05, No Iterations 1
DILUPBiCGStab:  Solving for Uz, Initial residual = 0.002115426, Final residual = 0.0001109637, No Iterations 1
GAMG:  Solving for p, Initial residual = 0.01752304, Final residual = 0.0001053678, No Iterations 5
GAMG:  Solving for p, Initial residual = 0.002749622, Final residual = 2.64969e-05, No Iterations 4
time step continuity errors : sum local = 0.0002877112, global = 4.171637e-05, cumulative = -1.315982e-05
ExecutionTime = 8.394 s  ClockTime = 8 s

forces forceMonitorOnPropellerInDefault write:
    Sum of forces
        Total    : (-13.4816 -2.745945 8.631675)
        Pressure : (-13.48339 -2.745201 8.62831)
        Viscous  : (0.001794927 -0.0007441686 0.003365362)
    Sum of moments
        Total    : (1.201324 -6.703055 -0.3251351)
        Pressure : (1.20091 -6.701127 -0.3245669)
        Viscous  : (0.0004136293 -0.001928023 -0.0005681846)
    writing force and moment files.

Time = 17

DILUPBiCGStab:  Solving for Ux, Initial residual = 0.0009005526, Final residual = 6.306497e-05, No Iterations 1
DILUPBiCGStab:  Solving for Uy, Initial residual = 0.001131956, Final residual = 8.100329e-05, No Iterations 1
DILUPBiCGStab:  Solving for Uz, Initial residual = 0.002139128, Final residual = 0.0001107374, No Iterations 1
GAMG:  Solving for p, Initial residual = 0.0168166, Final residual = 0.000100529, No Iterations 5
GAMG:  Solving for p, Initial residual = 0.002539873, Final residual = 2.443783e-05, No Iterations 4
time step continuity errors : sum local = 0.0002693124, global = 3.856858e-05, cumulative = 2.540876e-05
ExecutionTime = 8.849 s  ClockTime = 9 s

forces forceMonitorOnPropellerInDefault write:
    Sum of forces
        Total    : (-13.35911 -2.714509 8.562226)
        Pressure : (-13.36095 -2.713754 8.558794)
        Viscous  : (0.001839145 -0.0007543996 0.003431778)
    Sum of moments
        Total    : (1.193314 -6.64864 -0.3126701)
        Pressure : (1.192897 -6.64667 -0.3120932)
        Viscous  : (0.0004176494 -0.001969978 -0.0005768388)
    writing force and moment files.

Time = 18

DILUPBiCGStab:  Solving for Ux, Initial residual = 0.0008594973, Final residual = 5.929372e-05, No Iterations 1
DILUPBiCGStab:  Solving for Uy, Initial residual = 0.001121161, Final residual = 7.888845e-05, No Iterations 1
DILUPBiCGStab:  Solving for Uz, Initial residual = 0.002181621, Final residual = 0.0001119076, No Iterations 1
GAMG:  Solving for p, Initial residual = 0.01604669, Final residual = 9.549974e-05, No Iterations 5
GAMG:  Solving for p, Initial residual = 0.002348355, Final residual = 2.243455e-05, No Iterations 4
time step continuity errors : sum local = 0.0002511881, global = 3.568511e-05, cumulative = 6.109387e-05
ExecutionTime = 9.34 s  ClockTime = 9 s

forces forceMonitorOnPropellerInDefault write:
    Sum of forces
        Total    : (-13.22898 -2.674793 8.483151)
        Pressure : (-13.23087 -2.674013 8.479662)
        Viscous  : (0.00188345 -0.0007798245 0.003488526)
    Sum of moments
        Total    : (1.184259 -6.587949 -0.2957219)
        Pressure : (1.183837 -6.585944 -0.2951263)
        Viscous  : (0.0004223456 -0.00200545 -0.0005956617)
    writing force and moment files.

Time = 19

DILUPBiCGStab:  Solving for Ux, Initial residual = 0.0008226662, Final residual = 5.626672e-05, No Iterations 1
DILUPBiCGStab:  Solving for Uy, Initial residual = 0.001115552, Final residual = 7.714571e-05, No Iterations 1
DILUPBiCGStab:  Solving for Uz, Initial residual = 0.002236517, Final residual = 0.0001144684, No Iterations 1
GAMG:  Solving for p, Initial residual = 0.01527402, Final residual = 9.004865e-05, No Iterations 5
GAMG:  Solving for p, Initial residual = 0.002176027, Final residual = 2.060897e-05, No Iterations 4
time step continuity errors : sum local = 0.0002344719, global = 3.315016e-05, cumulative = 9.424403e-05
ExecutionTime = 9.825 s  ClockTime = 10 s

forces forceMonitorOnPropellerInDefault write:
    Sum of forces
        Total    : (-13.09038 -2.630729 8.39275)
        Pressure : (-13.09231 -2.629911 8.389214)
        Viscous  : (0.001926714 -0.0008182706 0.00353626)
    Sum of moments
        Total    : (1.174114 -6.519602 -0.2771301)
        Pressure : (1.173687 -6.517567 -0.276507)
        Viscous  : (0.0004276462 -0.002034932 -0.0006231272)
    writing force and moment files.

Time = 20

DILUPBiCGStab:  Solving for Ux, Initial residual = 0.0007885488, Final residual = 5.391275e-05, No Iterations 1
DILUPBiCGStab:  Solving for Uy, Initial residual = 0.001114608, Final residual = 7.59253e-05, No Iterations 1
DILUPBiCGStab:  Solving for Uz, Initial residual = 0.002290453, Final residual = 0.0001177652, No Iterations 1
GAMG:  Solving for p, Initial residual = 0.01451838, Final residual = 8.429626e-05, No Iterations 5
GAMG:  Solving for p, Initial residual = 0.002000309, Final residual = 1.890233e-05, No Iterations 4
time step continuity errors : sum local = 0.0002180571, global = 3.074118e-05, cumulative = 0.0001249852
ExecutionTime = 10.329 s  ClockTime = 10 s

forces forceMonitorOnPropellerInDefault write:
    Sum of forces
        Total    : (-12.94727 -2.588628 8.292744)
        Pressure : (-12.94924 -2.58776 8.289168)
        Viscous  : (0.001968693 -0.0008679335 0.003575733)
    Sum of moments
        Total    : (1.163235 -6.444786 -0.2608537)
        Pressure : (1.162802 -6.442728 -0.2601957)
        Viscous  : (0.000433505 -0.00205894 -0.0006580301)
    writing force and moment files.

Time = 21

DILUPBiCGStab:  Solving for Ux, Initial residual = 0.0007561155, Final residual = 5.202181e-05, No Iterations 1
DILUPBiCGStab:  Solving for Uy, Initial residual = 0.001117948, Final residual = 7.543024e-05, No Iterations 1
DILUPBiCGStab:  Solving for Uz, Initial residual = 0.002336736, Final residual = 0.0001213108, No Iterations 1
GAMG:  Solving for p, Initial residual = 0.0140468, Final residual = 7.847046e-05, No Iterations 5
GAMG:  Solving for p, Initial residual = 0.001865341, Final residual = 1.75175e-05, No Iterations 4
time step continuity errors : sum local = 0.0002044447, global = 2.861704e-05, cumulative = 0.0001536022
ExecutionTime = 10.867 s  ClockTime = 11 s

forces forceMonitorOnPropellerInDefault write:
    Sum of forces
        Total    : (-12.80364 -2.553728 8.186245)
        Pressure : (-12.80565 -2.552803 8.182639)
        Viscous  : (0.002006981 -0.0009253041 0.003606123)
    Sum of moments
        Total    : (1.151954 -6.365839 -0.2502816)
        Pressure : (1.151515 -6.363762 -0.2495837)
        Viscous  : (0.0004396113 -0.002077048 -0.0006978481)
    writing force and moment files.

Time = 22

DILUPBiCGStab:  Solving for Ux, Initial residual = 0.0007256363, Final residual = 5.004979e-05, No Iterations 1
DILUPBiCGStab:  Solving for Uy, Initial residual = 0.001124162, Final residual = 7.574939e-05, No Iterations 1
DILUPBiCGStab:  Solving for Uz, Initial residual = 0.002369254, Final residual = 0.0001245102, No Iterations 1
GAMG:  Solving for p, Initial residual = 0.01348905, Final residual = 7.247035e-05, No Iterations 5
GAMG:  Solving for p, Initial residual = 0.001726271, Final residual = 1.621488e-05, No Iterations 4
time step continuity errors : sum local = 0.0001908403, global = 2.591734e-05, cumulative = 0.0001795196
ExecutionTime = 11.34 s  ClockTime = 11 s

forces forceMonitorOnPropellerInDefault write:
    Sum of forces
        Total    : (-12.67106 -2.530511 8.082934)
        Pressure : (-12.67311 -2.529521 8.079304)
        Viscous  : (0.002046089 -0.0009899739 0.003630481)
    Sum of moments
        Total    : (1.141411 -6.289528 -0.2472478)
        Pressure : (1.140965 -6.287437 -0.246505)
        Viscous  : (0.0004461464 -0.002091044 -0.0007427879)
    writing force and moment files.

Time = 23

DILUPBiCGStab:  Solving for Ux, Initial residual = 0.0006973009, Final residual = 4.803788e-05, No Iterations 1
DILUPBiCGStab:  Solving for Uy, Initial residual = 0.001134776, Final residual = 7.693828e-05, No Iterations 1
DILUPBiCGStab:  Solving for Uz, Initial residual = 0.002386153, Final residual = 0.0001261679, No Iterations 1
GAMG:  Solving for p, Initial residual = 0.01310942, Final residual = 6.785693e-05, No Iterations 5
GAMG:  Solving for p, Initial residual = 0.001608896, Final residual = 1.513152e-05, No Iterations 4
time step continuity errors : sum local = 0.0001793263, global = 2.31754e-05, cumulative = 0.000202695
ExecutionTime = 11.842 s  ClockTime = 12 s

forces forceMonitorOnPropellerInDefault write:
    Sum of forces
        Total    : (-12.53944 -2.515376 7.977605)
        Pressure : (-12.54152 -2.514318 7.97396)
        Viscous  : (0.002080303 -0.001057883 0.003645562)
    Sum of moments
        Total    : (1.130727 -6.212332 -0.250493)
        Pressure : (1.130274 -6.210233 -0.2497034)
        Viscous  : (0.00045247 -0.002099109 -0.0007895938)
    writing force and moment files.

Time = 24

DILUPBiCGStab:  Solving for Ux, Initial residual = 0.0006713421, Final residual = 4.608302e-05, No Iterations 1
DILUPBiCGStab:  Solving for Uy, Initial residual = 0.00114969, Final residual = 7.865564e-05, No Iterations 1
DILUPBiCGStab:  Solving for Uz, Initial residual = 0.002386759, Final residual = 0.0001263199, No Iterations 1
GAMG:  Solving for p, Initial residual = 0.01266009, Final residual = 6.331797e-05, No Iterations 5
GAMG:  Solving for p, Initial residual = 0.001499252, Final residual = 1.411438e-05, No Iterations 4
time step continuity errors : sum local = 0.0001680962, global = 2.037323e-05, cumulative = 0.0002230682
ExecutionTime = 12.306 s  ClockTime = 12 s

forces forceMonitorOnPropellerInDefault write:
    Sum of forces
        Total    : (-12.41401 -2.505533 7.877338)
        Pressure : (-12.41612 -2.504405 7.873683)
        Viscous  : (0.002113599 -0.001128304 0.003655427)
    Sum of moments
        Total    : (1.120561 -6.138726 -0.2572807)
        Pressure : (1.120102 -6.136623 -0.2564424)
        Viscous  : (0.000458881 -0.002103691 -0.0008382061)
    writing force and moment files.

Time = 25

DILUPBiCGStab:  Solving for Ux, Initial residual = 0.0006474953, Final residual = 4.423612e-05, No Iterations 1
DILUPBiCGStab:  Solving for Uy, Initial residual = 0.001168754, Final residual = 8.039168e-05, No Iterations 1
DILUPBiCGStab:  Solving for Uz, Initial residual = 0.002374241, Final residual = 0.0001250723, No Iterations 1
GAMG:  Solving for p, Initial residual = 0.01214193, Final residual = 5.974771e-05, No Iterations 5
GAMG:  Solving for p, Initial residual = 0.001408051, Final residual = 1.339629e-05, No Iterations 4
time step continuity errors : sum local = 0.000160231, global = 1.81323e-05, cumulative = 0.0002412005
ExecutionTime = 12.777 s  ClockTime = 13 s

forces forceMonitorOnPropellerInDefault write:
    Sum of forces
        Total    : (-12.28571 -2.495527 7.776886)
        Pressure : (-12.28785 -2.494328 7.773228)
        Viscous  : (0.002142459 -0.001198732 0.003658075)
    Sum of moments
        Total    : (1.110032 -6.065004 -0.2646996)
        Pressure : (1.109567 -6.0629 -0.2638131)
        Viscous  : (0.000464963 -0.002103687 -0.0008865679)
    writing force and moment files.

Time = 26

DILUPBiCGStab:  Solving for Ux, Initial residual = 0.0006258264, Final residual = 4.245664e-05, No Iterations 1
DILUPBiCGStab:  Solving for Uy, Initial residual = 0.001190302, Final residual = 8.177695e-05, No Iterations 1
DILUPBiCGStab:  Solving for Uz, Initial residual = 0.002351465, Final residual = 0.0001230762, No Iterations 1
GAMG:  Solving for p, Initial residual = 0.01169278, Final residual = 5.640631e-05, No Iterations 5
GAMG:  Solving for p, Initial residual = 0.001333747, Final residual = 1.283702e-05, No Iterations 4
time step continuity errors : sum local = 0.0001539962, global = 1.607631e-05, cumulative = 0.0002572768
ExecutionTime = 13.286 s  ClockTime = 13 s

forces forceMonitorOnPropellerInDefault write:
    Sum of forces
        Total    : (-12.16387 -2.48545 7.685252)
        Pressure : (-12.16604 -2.48418 7.681595)
        Viscous  : (0.002171073 -0.001269636 0.003657292)
    Sum of moments
        Total    : (1.100193 -5.996985 -0.2714493)
        Pressure : (1.099722 -5.994884 -0.2705139)
        Viscous  : (0.0004710338 -0.002101371 -0.0009353853)
    writing force and moment files.

Time = 27

DILUPBiCGStab:  Solving for Ux, Initial residual = 0.0006063348, Final residual = 4.074958e-05, No Iterations 1
DILUPBiCGStab:  Solving for Uy, Initial residual = 0.001213558, Final residual = 8.278338e-05, No Iterations 1
DILUPBiCGStab:  Solving for Uz, Initial residual = 0.00232346, Final residual = 0.0001203887, No Iterations 1
GAMG:  Solving for p, Initial residual = 0.01112174, Final residual = 5.388163e-05, No Iterations 5
GAMG:  Solving for p, Initial residual = 0.001255562, Final residual = 1.232399e-05, No Iterations 4
time step continuity errors : sum local = 0.0001481338, global = 1.326299e-05, cumulative = 0.0002705398
ExecutionTime = 13.782 s  ClockTime = 14 s

forces forceMonitorOnPropellerInDefault write:
    Sum of forces
        Total    : (-12.03895 -2.473556 7.592928)
        Pressure : (-12.04114 -2.472218 7.589277)
        Viscous  : (0.002195537 -0.00133771 0.003651295)
    Sum of moments
        Total    : (1.0899 -5.92849 -0.2773121)
        Pressure : (1.089424 -5.926394 -0.27633)
        Viscous  : (0.0004766631 -0.002095775 -0.0009820946)
    writing force and moment files.

Time = 28

DILUPBiCGStab:  Solving for Ux, Initial residual = 0.0005889296, Final residual = 3.919661e-05, No Iterations 1
DILUPBiCGStab:  Solving for Uy, Initial residual = 0.001237194, Final residual = 8.352946e-05, No Iterations 1
DILUPBiCGStab:  Solving for Uz, Initial residual = 0.002289767, Final residual = 0.0001174928, No Iterations 1
GAMG:  Solving for p, Initial residual = 0.01068006, Final residual = 0.0001067401, No Iterations 4
GAMG:  Solving for p, Initial residual = 0.001191962, Final residual = 7.320419e-06, No Iterations 5
time step continuity errors : sum local = 8.800501e-05, global = 6.121762e-06, cumulative = 0.0002766616
ExecutionTime = 14.336 s  ClockTime = 14 s

forces forceMonitorOnPropellerInDefault write:
    Sum of forces
        Total    : (-11.92238 -2.46251 7.508993)
        Pressure : (-11.9246 -2.461106 7.50535)
        Viscous  : (0.002220213 -0.001404264 0.003643143)
    Sum of moments
        Total    : (1.080366 -5.865601 -0.2826668)
        Pressure : (1.079884 -5.863512 -0.2816388)
        Viscous  : (0.0004821243 -0.002088728 -0.001027949)
    writing force and moment files.

Time = 29

DILUPBiCGStab:  Solving for Ux, Initial residual = 0.0005733478, Final residual = 3.78379e-05, No Iterations 1
DILUPBiCGStab:  Solving for Uy, Initial residual = 0.001261987, Final residual = 8.42624e-05, No Iterations 1
DILUPBiCGStab:  Solving for Uz, Initial residual = 0.002254336, Final residual = 0.0001147468, No Iterations 1
GAMG:  Solving for p, Initial residual = 0.01022596, Final residual = 0.0001014212, No Iterations 4
GAMG:  Solving for p, Initial residual = 0.001119167, Final residual = 6.652249e-06, No Iterations 5
time step continuity errors : sum local = 7.992058e-05, global = 2.710365e-06, cumulative = 0.000279372
ExecutionTime = 14.868 s  ClockTime = 15 s

forces forceMonitorOnPropellerInDefault write:
    Sum of forces
        Total    : (-11.80742 -2.450778 7.426766)
        Pressure : (-11.80966 -2.449312 7.423135)
        Viscous  : (0.002240997 -0.001466544 0.003631391)
    Sum of moments
        Total    : (1.070763 -5.803964 -0.287427)
        Pressure : (1.070276 -5.801884 -0.2863562)
        Viscous  : (0.0004870742 -0.002079474 -0.001070733)
    writing force and moment files.

Time = 30

DILUPBiCGStab:  Solving for Ux, Initial residual = 0.0005595787, Final residual = 3.661565e-05, No Iterations 1
DILUPBiCGStab:  Solving for Uy, Initial residual = 0.001288493, Final residual = 8.519868e-05, No Iterations 1
DILUPBiCGStab:  Solving for Uz, Initial residual = 0.002219599, Final residual = 0.0001122006, No Iterations 1
GAMG:  Solving for p, Initial residual = 0.009757701, Final residual = 9.609406e-05, No Iterations 4
GAMG:  Solving for p, Initial residual = 0.001052879, Final residual = 5.892117e-06, No Iterations 5
time step continuity errors : sum local = 7.06354e-05, global = -1.324896e-06, cumulative = 0.0002780471
ExecutionTime = 15.475 s  ClockTime = 15 s

forces forceMonitorOnPropellerInDefault write:
    Sum of forces
        Total    : (-11.70444 -2.440182 7.354832)
        Pressure : (-11.7067 -2.438655 7.351213)
        Viscous  : (0.002262317 -0.001526814 0.003619549)
    Sum of moments
        Total    : (1.062213 -5.749276 -0.2915657)
        Pressure : (1.061721 -5.747206 -0.2904534)
        Viscous  : (0.0004919139 -0.002070111 -0.001112313)
    writing force and moment files.

Time = 31

DILUPBiCGStab:  Solving for Ux, Initial residual = 0.0005473051, Final residual = 3.569939e-05, No Iterations 1
DILUPBiCGStab:  Solving for Uy, Initial residual = 0.001316759, Final residual = 8.661124e-05, No Iterations 1
DILUPBiCGStab:  Solving for Uz, Initial residual = 0.002185345, Final residual = 0.0001099371, No Iterations 1
GAMG:  Solving for p, Initial residual = 0.009274189, Final residual = 9.080892e-05, No Iterations 4
GAMG:  Solving for p, Initial residual = 0.0009894219, Final residual = 5.266433e-06, No Iterations 5
time step continuity errors : sum local = 6.290761e-05, global = -4.588187e-06, cumulative = 0.0002734589
ExecutionTime = 16.026 s  ClockTime = 16 s

forces forceMonitorOnPropellerInDefault write:
    Sum of forces
        Total    : (-11.60446 -2.429207 7.285057)
        Pressure : (-11.60674 -2.427624 7.281452)
        Viscous  : (0.00228039 -0.001582881 0.003605418)
    Sum of moments
        Total    : (1.053751 -5.696212 -0.2950939)
        Pressure : (1.053254 -5.694153 -0.293943)
        Viscous  : (0.0004962636 -0.002059394 -0.001150882)
    writing force and moment files.

Time = 32

DILUPBiCGStab:  Solving for Ux, Initial residual = 0.0005365419, Final residual = 3.493455e-05, No Iterations 1
DILUPBiCGStab:  Solving for Uy, Initial residual = 0.0013468, Final residual = 8.854905e-05, No Iterations 1
DILUPBiCGStab:  Solving for Uz, Initial residual = 0.002151448, Final residual = 0.0001076964, No Iterations 1
GAMG:  Solving for p, Initial residual = 0.008912131, Final residual = 8.6637e-05, No Iterations 4
GAMG:  Solving for p, Initial residual = 0.000942518, Final residual = 4.993297e-06, No Iterations 5
time step continuity errors : sum local = 5.939491e-05, global = -6.940756e-06, cumulative = 0.0002665181
ExecutionTime = 16.561 s  ClockTime = 16 s

forces forceMonitorOnPropellerInDefault write:
    Sum of forces
        Total    : (-11.51307 -2.418862 7.222045)
        Pressure : (-11.51537 -2.417227 7.218453)
        Viscous  : (0.002298511 -0.001635056 0.003591442)
    Sum of moments
        Total    : (1.045953 -5.647894 -0.2980522)
        Pressure : (1.045452 -5.645845 -0.2968652)
        Viscous  : (0.0005003711 -0.002048782 -0.001186978)
    writing force and moment files.

Time = 33

DILUPBiCGStab:  Solving for Ux, Initial residual = 0.0005272749, Final residual = 3.43098e-05, No Iterations 1
DILUPBiCGStab:  Solving for Uy, Initial residual = 0.00137965, Final residual = 9.104863e-05, No Iterations 1
DILUPBiCGStab:  Solving for Uz, Initial residual = 0.002117158, Final residual = 0.0001053458, No Iterations 1
GAMG:  Solving for p, Initial residual = 0.008641153, Final residual = 8.342288e-05, No Iterations 4
GAMG:  Solving for p, Initial residual = 0.0009086587, Final residual = 5.137611e-06, No Iterations 5
time step continuity errors : sum local = 6.077041e-05, global = -7.915729e-06, cumulative = 0.0002586024
ExecutionTime = 17.089 s  ClockTime = 17 s

forces forceMonitorOnPropellerInDefault write:
    Sum of forces
        Total    : (-11.42583 -2.408558 7.161214)
        Pressure : (-11.42814 -2.406875 7.157638)
        Viscous  : (0.002313065 -0.001683265 0.003575547)
    Sum of moments
        Total    : (1.038389 -5.601451 -0.3004466)
        Pressure : (1.037885 -5.599414 -0.2992264)
        Viscous  : (0.000503987 -0.002037093 -0.001220151)
    writing force and moment files.

Time = 34

DILUPBiCGStab:  Solving for Ux, Initial residual = 0.000519531, Final residual = 3.386657e-05, No Iterations 1
DILUPBiCGStab:  Solving for Uy, Initial residual = 0.001415015, Final residual = 9.39311e-05, No Iterations 1
DILUPBiCGStab:  Solving for Uz, Initial residual = 0.002082174, Final residual = 0.0001027704, No Iterations 1
GAMG:  Solving for p, Initial residual = 0.008331006, Final residual = 8.019558e-05, No Iterations 4
GAMG:  Solving for p, Initial residual = 0.0008780707, Final residual = 5.301297e-06, No Iterations 5
time step continuity errors : sum local = 6.229619e-05, global = -8.614232e-06, cumulative = 0.0002499882
ExecutionTime = 17.567 s  ClockTime = 17 s

forces forceMonitorOnPropellerInDefault write:
    Sum of forces
        Total    : (-11.35411 -2.400216 7.113069)
        Pressure : (-11.35644 -2.398488 7.109507)
        Viscous  : (0.002328961 -0.001728303 0.003561819)
    Sum of moments
        Total    : (1.032216 -5.563769 -0.302444)
        Pressure : (1.031709 -5.561742 -0.3011926)
        Viscous  : (0.0005075332 -0.002026739 -0.0012514)
    writing force and moment files.

Time = 35

DILUPBiCGStab:  Solving for Ux, Initial residual = 0.0005132835, Final residual = 3.355642e-05, No Iterations 1
DILUPBiCGStab:  Solving for Uy, Initial residual = 0.001451496, Final residual = 9.693781e-05, No Iterations 1
DILUPBiCGStab:  Solving for Uz, Initial residual = 0.00204669, Final residual = 9.998575e-05, No Iterations 1
GAMG:  Solving for p, Initial residual = 0.008073519, Final residual = 7.823124e-05, No Iterations 4
GAMG:  Solving for p, Initial residual = 0.0008549146, Final residual = 5.358507e-06, No Iterations 5
time step continuity errors : sum local = 6.250853e-05, global = -8.66873e-06, cumulative = 0.0002413194
ExecutionTime = 18.075 s  ClockTime = 18 s


    From virtual bool Foam::regIOobject::readIfModified()
    in file db/regIOobject/regIOobjectRead.C at line 271
        Re-reading object turbulenceProperties from file "C:/Users/27590/SimFlow-Workspaces/Workspace-jdr5r1/My_Cases/propeller_model/propeller_model/constant/turbulenceProperties"
forces forceMonitorOnPropellerInDefault write:
    Sum of forces
        Total    : (-11.28092 -2.390878 7.061432)
        Pressure : (-11.28326 -2.389109 7.057886)
        Viscous  : (0.002340423 -0.001768897 0.003545701)
    Sum of moments
        Total    : (1.025753 -5.524369 -0.3037083)
        Pressure : (1.025243 -5.522354 -0.3024289)
        Viscous  : (0.0005105018 -0.002015058 -0.001279333)
    writing force and moment files.

Time = 36

DILUPBiCGStab:  Solving for Ux, Initial residual = 0.0005083364, Final residual = 3.335201e-05, No Iterations 1
DILUPBiCGStab:  Solving for Uy, Initial residual = 0.001489662, Final residual = 9.994488e-05, No Iterations 1
DILUPBiCGStab:  Solving for Uz, Initial residual = 0.002009869, Final residual = 9.694515e-05, No Iterations 1
GAMG:  Solving for p, Initial residual = 0.007853701, Final residual = 7.569699e-05, No Iterations 4
GAMG:  Solving for p, Initial residual = 0.0008292597, Final residual = 5.447254e-06, No Iterations 5
time step continuity errors : sum local = 6.301177e-05, global = -8.822959e-06, cumulative = 0.0002324965
DILUPBiCGStab:  Solving for epsilon, Initial residual = 0.7404263, Final residual = 0.06717563, No Iterations 1
DILUPBiCGStab:  Solving for k, Initial residual = 1, Final residual = 0.09710271, No Iterations 1
ExecutionTime = 18.808 s  ClockTime = 19 s

forces forceMonitorOnPropellerInDefault write:
    Sum of forces
        Total    : (-11.16221 -2.438771 7.127708)
        Pressure : (-11.22854 -2.382292 7.021083)
        Viscous  : (0.06633318 -0.05647935 0.106625)
    Sum of moments
        Total    : (1.038499 -5.55597 -0.3472285)
        Pressure : (1.020418 -5.493184 -0.3034356)
        Viscous  : (0.01808185 -0.06278579 -0.04379289)
    writing force and moment files.

Time = 37

DILUPBiCGStab:  Solving for Ux, Initial residual = 0.0005054617, Final residual = 3.332008e-05, No Iterations 1
DILUPBiCGStab:  Solving for Uy, Initial residual = 0.00152773, Final residual = 0.0001027942, No Iterations 1
DILUPBiCGStab:  Solving for Uz, Initial residual = 0.00198333, Final residual = 9.442969e-05, No Iterations 1
GAMG:  Solving for p, Initial residual = 0.007778593, Final residual = 7.690097e-05, No Iterations 4
GAMG:  Solving for p, Initial residual = 0.0008294614, Final residual = 5.530245e-06, No Iterations 5
time step continuity errors : sum local = 6.332197e-05, global = -8.408117e-06, cumulative = 0.0002240884
DILUPBiCGStab:  Solving for epsilon, Initial residual = 0.1649444, Final residual = 0.01514015, No Iterations 1
DILUPBiCGStab:  Solving for k, Initial residual = 0.03290376, Final residual = 0.003217676, No Iterations 1
ExecutionTime = 19.403 s  ClockTime = 19 s

forces forceMonitorOnPropellerInDefault write:
    Sum of forces
        Total    : (-11.10045 -2.430604 7.077258)
        Pressure : (-11.16479 -2.374487 6.97442)
        Viscous  : (0.06433943 -0.05611691 0.1028377)
    Sum of moments
        Total    : (1.032612 -5.51868 -0.3471277)
        Pressure : (1.014938 -5.458175 -0.3037348)
        Viscous  : (0.01767348 -0.06050514 -0.04339287)
    writing force and moment files.

Time = 38

DILUPBiCGStab:  Solving for Ux, Initial residual = 0.0005027563, Final residual = 3.322451e-05, No Iterations 1
DILUPBiCGStab:  Solving for Uy, Initial residual = 0.001560733, Final residual = 0.0001053102, No Iterations 1
DILUPBiCGStab:  Solving for Uz, Initial residual = 0.001929045, Final residual = 9.026557e-05, No Iterations 1
GAMG:  Solving for p, Initial residual = 0.007681176, Final residual = 7.457853e-05, No Iterations 4
GAMG:  Solving for p, Initial residual = 0.000809267, Final residual = 5.585753e-06, No Iterations 5
time step continuity errors : sum local = 6.332825e-05, global = -8.60569e-06, cumulative = 0.0002154827
DILUPBiCGStab:  Solving for epsilon, Initial residual = 0.01031007, Final residual = 0.0009124402, No Iterations 1
DILUPBiCGStab:  Solving for k, Initial residual = 0.01460608, Final residual = 0.001389956, No Iterations 1
ExecutionTime = 20.026 s  ClockTime = 20 s

forces forceMonitorOnPropellerInDefault write:
    Sum of forces
        Total    : (-11.05712 -2.424003 7.044546)
        Pressure : (-11.11994 -2.368299 6.944683)
        Viscous  : (0.06281969 -0.05570326 0.09986328)
    Sum of moments
        Total    : (1.028406 -5.493054 -0.346486)
        Pressure : (1.011058 -5.434344 -0.3034803)
        Viscous  : (0.01734848 -0.05870966 -0.04300566)
    writing force and moment files.

Time = 39

DILUPBiCGStab:  Solving for Ux, Initial residual = 0.0005008477, Final residual = 3.318734e-05, No Iterations 1
DILUPBiCGStab:  Solving for Uy, Initial residual = 0.001593077, Final residual = 0.0001076631, No Iterations 1
DILUPBiCGStab:  Solving for Uz, Initial residual = 0.001880119, Final residual = 8.657582e-05, No Iterations 1
GAMG:  Solving for p, Initial residual = 0.007649064, Final residual = 7.367337e-05, No Iterations 4
GAMG:  Solving for p, Initial residual = 0.0007986085, Final residual = 5.571547e-06, No Iterations 5
time step continuity errors : sum local = 6.254489e-05, global = -8.647303e-06, cumulative = 0.0002068354
DILUPBiCGStab:  Solving for epsilon, Initial residual = 0.001829293, Final residual = 0.0001574855, No Iterations 1
DILUPBiCGStab:  Solving for k, Initial residual = 0.006803008, Final residual = 0.0006229372, No Iterations 1
ExecutionTime = 20.727 s  ClockTime = 21 s

forces forceMonitorOnPropellerInDefault write:
    Sum of forces
        Total    : (-11.00873 -2.414665 7.006135)
        Pressure : (-11.07025 -2.359442 6.908703)
        Viscous  : (0.06151567 -0.055223 0.09743205)
    Sum of moments
        Total    : (1.023525 -5.464048 -0.3446449)
        Pressure : (1.006449 -5.406806 -0.3020511)
        Viscous  : (0.01707575 -0.05724257 -0.04259373)
    writing force and moment files.

Time = 40

DILUPBiCGStab:  Solving for Ux, Initial residual = 0.0004998681, Final residual = 3.314642e-05, No Iterations 1
DILUPBiCGStab:  Solving for Uy, Initial residual = 0.00162385, Final residual = 0.0001098686, No Iterations 1
DILUPBiCGStab:  Solving for Uz, Initial residual = 0.001837514, Final residual = 8.327552e-05, No Iterations 1
GAMG:  Solving for p, Initial residual = 0.007509329, Final residual = 7.254953e-05, No Iterations 4
GAMG:  Solving for p, Initial residual = 0.0007811129, Final residual = 5.518996e-06, No Iterations 5
time step continuity errors : sum local = 6.128369e-05, global = -8.386297e-06, cumulative = 0.0001984491
DILUPBiCGStab:  Solving for epsilon, Initial residual = 0.0005989382, Final residual = 4.999341e-05, No Iterations 1
DILUPBiCGStab:  Solving for k, Initial residual = 0.003799608, Final residual = 0.0003335521, No Iterations 1
ExecutionTime = 21.467 s  ClockTime = 21 s

forces forceMonitorOnPropellerInDefault write:
    Sum of forces
        Total    : (-10.98185 -2.408039 6.986247)
        Pressure : (-11.04237 -2.353293 6.890709)
        Viscous  : (0.06052268 -0.0547454 0.09553845)
    Sum of moments
        Total    : (1.020614 -5.447527 -0.3425561)
        Pressure : (1.003757 -5.391427 -0.3003455)
        Viscous  : (0.01685691 -0.0561001 -0.04221067)
    writing force and moment files.

Time = 41

DILUPBiCGStab:  Solving for Ux, Initial residual = 0.000498865, Final residual = 3.312309e-05, No Iterations 1
DILUPBiCGStab:  Solving for Uy, Initial residual = 0.001652512, Final residual = 0.0001120856, No Iterations 1
DILUPBiCGStab:  Solving for Uz, Initial residual = 0.001799755, Final residual = 8.034181e-05, No Iterations 1
GAMG:  Solving for p, Initial residual = 0.007551419, Final residual = 7.236543e-05, No Iterations 4
GAMG:  Solving for p, Initial residual = 0.0007839214, Final residual = 5.5088e-06, No Iterations 5
time step continuity errors : sum local = 6.052195e-05, global = -8.165526e-06, cumulative = 0.0001902835
DILUPBiCGStab:  Solving for epsilon, Initial residual = 0.0002854267, Final residual = 2.225944e-05, No Iterations 1
DILUPBiCGStab:  Solving for k, Initial residual = 0.00245677, Final residual = 0.0002074583, No Iterations 1
ExecutionTime = 22.139 s  ClockTime = 22 s

forces forceMonitorOnPropellerInDefault write:
    Sum of forces
        Total    : (-10.94746 -2.399306 6.957082)
        Pressure : (-11.00708 -2.345052 6.863112)
        Viscous  : (0.0596237 -0.05425432 0.09396924)
    Sum of moments
        Total    : (1.016906 -5.425495 -0.3395574)
        Pressure : (1.000235 -5.370339 -0.2977322)
        Viscous  : (0.01667131 -0.05515583 -0.04182526)
    writing force and moment files.

Time = 42

DILUPBiCGStab:  Solving for Ux, Initial residual = 0.0004987293, Final residual = 3.309995e-05, No Iterations 1
DILUPBiCGStab:  Solving for Uy, Initial residual = 0.001679348, Final residual = 0.0001143764, No Iterations 1
DILUPBiCGStab:  Solving for Uz, Initial residual = 0.001765444, Final residual = 7.773776e-05, No Iterations 1
GAMG:  Solving for p, Initial residual = 0.007422943, Final residual = 7.184858e-05, No Iterations 4
GAMG:  Solving for p, Initial residual = 0.000770885, Final residual = 5.406299e-06, No Iterations 5
time step continuity errors : sum local = 5.868191e-05, global = -7.697618e-06, cumulative = 0.0001825859
DILUPBiCGStab:  Solving for epsilon, Initial residual = 0.0001739225, Final residual = 1.307098e-05, No Iterations 1
DILUPBiCGStab:  Solving for k, Initial residual = 0.001755839, Final residual = 0.0001436785, No Iterations 1
ExecutionTime = 22.762 s  ClockTime = 23 s

forces forceMonitorOnPropellerInDefault write:
    Sum of forces
        Total    : (-10.93456 -2.394118 6.946118)
        Pressure : (-10.99357 -2.340266 6.853324)
        Viscous  : (0.05900264 -0.05385119 0.09279405)
    Sum of moments
        Total    : (1.01528 -5.415794 -0.3366635)
        Pressure : (0.9987502 -5.361345 -0.2951436)
        Viscous  : (0.01652947 -0.05444823 -0.04151992)
    writing force and moment files.

Time = 43

DILUPBiCGStab:  Solving for Ux, Initial residual = 0.000498246, Final residual = 3.31382e-05, No Iterations 1
DILUPBiCGStab:  Solving for Uy, Initial residual = 0.001703881, Final residual = 0.0001166122, No Iterations 1
DILUPBiCGStab:  Solving for Uz, Initial residual = 0.001734564, Final residual = 7.55473e-05, No Iterations 1
GAMG:  Solving for p, Initial residual = 0.007372859, Final residual = 7.051466e-05, No Iterations 4
GAMG:  Solving for p, Initial residual = 0.0007596622, Final residual = 5.323136e-06, No Iterations 5
time step continuity errors : sum local = 5.711174e-05, global = -7.34282e-06, cumulative = 0.0001752431
DILUPBiCGStab:  Solving for epsilon, Initial residual = 0.0001254996, Final residual = 9.691717e-06, No Iterations 1
DILUPBiCGStab:  Solving for k, Initial residual = 0.001343839, Final residual = 0.000107514, No Iterations 1
ExecutionTime = 23.414 s  ClockTime = 23 s

forces forceMonitorOnPropellerInDefault write:
    Sum of forces
        Total    : (-10.91325 -2.38708 6.925378)
        Pressure : (-10.97169 -2.333605 6.833575)
        Viscous  : (0.05843829 -0.05347588 0.09180329)
    Sum of moments
        Total    : (1.012805 -5.400205 -0.3331348)
        Pressure : (0.9963955 -5.346352 -0.2918994)
        Viscous  : (0.01640918 -0.05385264 -0.04123541)
    writing force and moment files.

Time = 44

DILUPBiCGStab:  Solving for Ux, Initial residual = 0.0004982137, Final residual = 3.314353e-05, No Iterations 1
DILUPBiCGStab:  Solving for Uy, Initial residual = 0.001726094, Final residual = 0.0001187709, No Iterations 1
DILUPBiCGStab:  Solving for Uz, Initial residual = 0.001705526, Final residual = 7.350548e-05, No Iterations 1
GAMG:  Solving for p, Initial residual = 0.007296459, Final residual = 7.058906e-05, No Iterations 4
GAMG:  Solving for p, Initial residual = 0.0007479063, Final residual = 5.183076e-06, No Iterations 5
time step continuity errors : sum local = 5.494913e-05, global = -6.996231e-06, cumulative = 0.0001682469
DILUPBiCGStab:  Solving for epsilon, Initial residual = 0.0001018123, Final residual = 8.125706e-06, No Iterations 1
DILUPBiCGStab:  Solving for k, Initial residual = 0.001079778, Final residual = 8.519142e-05, No Iterations 1
ExecutionTime = 23.981 s  ClockTime = 24 s

forces forceMonitorOnPropellerInDefault write:
    Sum of forces
        Total    : (-10.90746 -2.382439 6.917459)
        Pressure : (-10.9655 -2.329273 6.826426)
        Viscous  : (0.05803836 -0.05316574 0.09103287)
    Sum of moments
        Total    : (1.011762 -5.393374 -0.3296415)
        Pressure : (0.9954463 -5.339985 -0.288635)
        Viscous  : (0.01631538 -0.05338867 -0.04100652)
    writing force and moment files.

Time = 45

DILUPBiCGStab:  Solving for Ux, Initial residual = 0.0004981755, Final residual = 3.314867e-05, No Iterations 1
DILUPBiCGStab:  Solving for Uy, Initial residual = 0.001747176, Final residual = 0.0001208868, No Iterations 1
DILUPBiCGStab:  Solving for Uz, Initial residual = 0.001679982, Final residual = 7.176687e-05, No Iterations 1
GAMG:  Solving for p, Initial residual = 0.007302013, Final residual = 7.041865e-05, No Iterations 4
GAMG:  Solving for p, Initial residual = 0.0007532998, Final residual = 5.164673e-06, No Iterations 5
time step continuity errors : sum local = 5.412321e-05, global = -6.940774e-06, cumulative = 0.0001613061
DILUPBiCGStab:  Solving for epsilon, Initial residual = 8.941326e-05, Final residual = 7.25281e-06, No Iterations 1
DILUPBiCGStab:  Solving for k, Initial residual = 0.0008990263, Final residual = 7.040296e-05, No Iterations 1
ExecutionTime = 24.58 s  ClockTime = 24 s

forces forceMonitorOnPropellerInDefault write:
    Sum of forces
        Total    : (-10.89571 -2.376195 6.901988)
        Pressure : (-10.95338 -2.323298 6.811619)
        Viscous  : (0.05766563 -0.05289724 0.0903686)
    Sum of moments
        Total    : (1.010084 -5.38207 -0.3254753)
        Pressure : (0.9938481 -5.329081 -0.2846702)
        Viscous  : (0.01623613 -0.05298872 -0.04080505)
    writing force and moment files.

Time = 46

DILUPBiCGStab:  Solving for Ux, Initial residual = 0.0004985195, Final residual = 3.31604e-05, No Iterations 1
DILUPBiCGStab:  Solving for Uy, Initial residual = 0.001766703, Final residual = 0.0001228929, No Iterations 1
DILUPBiCGStab:  Solving for Uz, Initial residual = 0.001655564, Final residual = 7.013289e-05, No Iterations 1
GAMG:  Solving for p, Initial residual = 0.007220224, Final residual = 7.160688e-05, No Iterations 4
GAMG:  Solving for p, Initial residual = 0.0007511171, Final residual = 5.015721e-06, No Iterations 5
time step continuity errors : sum local = 5.192644e-05, global = -6.60582e-06, cumulative = 0.0001547003
DILUPBiCGStab:  Solving for epsilon, Initial residual = 8.26015e-05, Final residual = 6.715407e-06, No Iterations 1
DILUPBiCGStab:  Solving for k, Initial residual = 0.0007689537, Final residual = 6.004636e-05, No Iterations 1
ExecutionTime = 25.154 s  ClockTime = 25 s

forces forceMonitorOnPropellerInDefault write:
    Sum of forces
        Total    : (-10.90274 -2.373076 6.902495)
        Pressure : (-10.96018 -2.320361 6.812631)
        Viscous  : (0.05744425 -0.05271493 0.08986475)
    Sum of moments
        Total    : (1.010223 -5.381562 -0.3214675)
        Pressure : (0.9940445 -5.328878 -0.2807954)
        Viscous  : (0.01617819 -0.05268359 -0.04067217)
    writing force and moment files.

Time = 47

DILUPBiCGStab:  Solving for Ux, Initial residual = 0.0004984995, Final residual = 3.318235e-05, No Iterations 1
DILUPBiCGStab:  Solving for Uy, Initial residual = 0.001784377, Final residual = 0.0001247932, No Iterations 1
DILUPBiCGStab:  Solving for Uz, Initial residual = 0.001633689, Final residual = 6.864988e-05, No Iterations 1
GAMG:  Solving for p, Initial residual = 0.007183438, Final residual = 6.980754e-05, No Iterations 4
GAMG:  Solving for p, Initial residual = 0.0007435848, Final residual = 4.902443e-06, No Iterations 5
time step continuity errors : sum local = 5.017951e-05, global = -6.350861e-06, cumulative = 0.0001483494
DILUPBiCGStab:  Solving for epsilon, Initial residual = 7.86161e-05, Final residual = 6.360567e-06, No Iterations 1
DILUPBiCGStab:  Solving for k, Initial residual = 0.0006717756, Final residual = 5.245467e-05, No Iterations 1
ExecutionTime = 25.802 s  ClockTime = 26 s

forces forceMonitorOnPropellerInDefault write:
    Sum of forces
        Total    : (-10.9011 -2.368014 6.89338)
        Pressure : (-10.9583 -2.315464 6.803989)
        Viscous  : (0.05720481 -0.05255054 0.0893908)
    Sum of moments
        Total    : (1.009434 -5.375166 -0.3169283)
        Pressure : (0.9933078 -5.32277 -0.2763801)
        Viscous  : (0.0161258 -0.05239654 -0.04054824)
    writing force and moment files.

Time = 48

DILUPBiCGStab:  Solving for Ux, Initial residual = 0.0004989274, Final residual = 3.319923e-05, No Iterations 1
DILUPBiCGStab:  Solving for Uy, Initial residual = 0.001800186, Final residual = 0.0001264212, No Iterations 1
DILUPBiCGStab:  Solving for Uz, Initial residual = 0.001612218, Final residual = 6.727625e-05, No Iterations 1
GAMG:  Solving for p, Initial residual = 0.007154815, Final residual = 3.419595e-05, No Iterations 5
GAMG:  Solving for p, Initial residual = 0.0007214424, Final residual = 7.079367e-06, No Iterations 4
time step continuity errors : sum local = 7.152557e-05, global = -1.094263e-05, cumulative = 0.0001374068
DILUPBiCGStab:  Solving for epsilon, Initial residual = 7.593976e-05, Final residual = 6.08966e-06, No Iterations 1
DILUPBiCGStab:  Solving for k, Initial residual = 0.0005968713, Final residual = 4.668695e-05, No Iterations 1
ExecutionTime = 26.507 s  ClockTime = 26 s

forces forceMonitorOnPropellerInDefault write:
    Sum of forces
        Total    : (-10.91346 -2.365134 6.89644)
        Pressure : (-10.97054 -2.312688 6.807424)
        Viscous  : (0.05707976 -0.05244612 0.08901549)
    Sum of moments
        Total    : (1.009984 -5.377023 -0.3124902)
        Pressure : (0.9938972 -5.324856 -0.272017)
        Viscous  : (0.01608667 -0.05216729 -0.04047315)
    writing force and moment files.

Time = 49

DILUPBiCGStab:  Solving for Ux, Initial residual = 0.000498954, Final residual = 3.317484e-05, No Iterations 1
DILUPBiCGStab:  Solving for Uy, Initial residual = 0.001814354, Final residual = 0.0001278211, No Iterations 1
DILUPBiCGStab:  Solving for Uz, Initial residual = 0.001593122, Final residual = 6.610999e-05, No Iterations 1
GAMG:  Solving for p, Initial residual = 0.007094735, Final residual = 7.004793e-05, No Iterations 4
GAMG:  Solving for p, Initial residual = 0.000734916, Final residual = 4.725044e-06, No Iterations 5
time step continuity errors : sum local = 4.728291e-05, global = -5.927294e-06, cumulative = 0.0001314795
DILUPBiCGStab:  Solving for epsilon, Initial residual = 7.375539e-05, Final residual = 5.847696e-06, No Iterations 1
DILUPBiCGStab:  Solving for k, Initial residual = 0.0005377275, Final residual = 4.217212e-05, No Iterations 1
ExecutionTime = 27.188 s  ClockTime = 27 s

forces forceMonitorOnPropellerInDefault write:
    Sum of forces
        Total    : (-10.91918 -2.360969 6.89162)
        Pressure : (-10.9761 -2.308625 6.802968)
        Viscous  : (0.05691689 -0.05234407 0.08865263)
    Sum of moments
        Total    : (1.009823 -5.374162 -0.3077257)
        Pressure : (0.9937731 -5.322216 -0.2673305)
        Viscous  : (0.01604976 -0.05194601 -0.04039522)
    writing force and moment files.

Time = 50

DILUPBiCGStab:  Solving for Ux, Initial residual = 0.0004991811, Final residual = 3.31459e-05, No Iterations 1
DILUPBiCGStab:  Solving for Uy, Initial residual = 0.001826211, Final residual = 0.0001289545, No Iterations 1
DILUPBiCGStab:  Solving for Uz, Initial residual = 0.001574619, Final residual = 6.493967e-05, No Iterations 1
GAMG:  Solving for p, Initial residual = 0.007171464, Final residual = 3.43314e-05, No Iterations 5
GAMG:  Solving for p, Initial residual = 0.0007187917, Final residual = 6.777111e-06, No Iterations 4
time step continuity errors : sum local = 6.702111e-05, global = -1.031293e-05, cumulative = 0.0001211666
DILUPBiCGStab:  Solving for epsilon, Initial residual = 7.164679e-05, Final residual = 5.60855e-06, No Iterations 1
DILUPBiCGStab:  Solving for k, Initial residual = 0.0004901353, Final residual = 3.85816e-05, No Iterations 1
ExecutionTime = 27.88 s  ClockTime = 28 s

forces forceMonitorOnPropellerInDefault write:
    Sum of forces
        Total    : (-10.93909 -2.35897 6.899102)
        Pressure : (-10.99592 -2.306691 6.810758)
        Viscous  : (0.05683641 -0.05227874 0.08834355)
    Sum of moments
        Total    : (1.011054 -5.379647 -0.30301)
        Pressure : (0.9950342 -5.327891 -0.2626614)
        Viscous  : (0.0160201 -0.05175616 -0.04034854)
    writing force and moment files.

Time = 51

DILUPBiCGStab:  Solving for Ux, Initial residual = 0.000499039, Final residual = 3.305027e-05, No Iterations 1
DILUPBiCGStab:  Solving for Uy, Initial residual = 0.001835918, Final residual = 0.0001298765, No Iterations 1
DILUPBiCGStab:  Solving for Uz, Initial residual = 0.001558677, Final residual = 6.404289e-05, No Iterations 1
GAMG:  Solving for p, Initial residual = 0.006984527, Final residual = 6.803324e-05, No Iterations 4
GAMG:  Solving for p, Initial residual = 0.0007223034, Final residual = 4.379298e-06, No Iterations 5
time step continuity errors : sum local = 4.290738e-05, global = -5.484136e-06, cumulative = 0.0001156824
DILUPBiCGStab:  Solving for epsilon, Initial residual = 6.943746e-05, Final residual = 5.36751e-06, No Iterations 1
DILUPBiCGStab:  Solving for k, Initial residual = 0.0004511582, Final residual = 3.56674e-05, No Iterations 1
ExecutionTime = 28.501 s  ClockTime = 28 s

forces forceMonitorOnPropellerInDefault write:
    Sum of forces
        Total    : (-10.9524 -2.355724 6.898947)
        Pressure : (-11.00911 -2.303519 6.810893)
        Viscous  : (0.05670593 -0.05220537 0.08805381)
    Sum of moments
        Total    : (1.011568 -5.380536 -0.2980544)
        Pressure : (0.9955769 -5.328957 -0.2577636)
        Viscous  : (0.01599152 -0.05157894 -0.04029078)
    writing force and moment files.

Time = 52

DILUPBiCGStab:  Solving for Ux, Initial residual = 0.0004988308, Final residual = 3.293102e-05, No Iterations 1
DILUPBiCGStab:  Solving for Uy, Initial residual = 0.001842765, Final residual = 0.0001305307, No Iterations 1
DILUPBiCGStab:  Solving for Uz, Initial residual = 0.001543215, Final residual = 6.313124e-05, No Iterations 1
GAMG:  Solving for p, Initial residual = 0.006909537, Final residual = 6.774574e-05, No Iterations 4
GAMG:  Solving for p, Initial residual = 0.000712078, Final residual = 4.173954e-06, No Iterations 5
time step continuity errors : sum local = 4.047831e-05, global = -5.26887e-06, cumulative = 0.0001104136
DILUPBiCGStab:  Solving for epsilon, Initial residual = 6.714056e-05, Final residual = 5.1329e-06, No Iterations 1
DILUPBiCGStab:  Solving for k, Initial residual = 0.0004188266, Final residual = 3.328268e-05, No Iterations 1
ExecutionTime = 29.147 s  ClockTime = 29 s

forces forceMonitorOnPropellerInDefault write:
    Sum of forces
        Total    : (-10.97674 -2.35434 6.908548)
        Pressure : (-11.03339 -2.302196 6.820744)
        Viscous  : (0.05664665 -0.05214319 0.08780397)
    Sum of moments
        Total    : (1.013178 -5.388077 -0.2932868)
        Pressure : (0.9972117 -5.336651 -0.2530401)
        Viscous  : (0.01596663 -0.05142525 -0.04024664)
    writing force and moment files.

Time = 53

DILUPBiCGStab:  Solving for Ux, Initial residual = 0.0004983204, Final residual = 3.276602e-05, No Iterations 1
DILUPBiCGStab:  Solving for Uy, Initial residual = 0.001847449, Final residual = 0.0001310936, No Iterations 1
DILUPBiCGStab:  Solving for Uz, Initial residual = 0.001529663, Final residual = 6.243215e-05, No Iterations 1
GAMG:  Solving for p, Initial residual = 0.006922123, Final residual = 6.598313e-05, No Iterations 4
GAMG:  Solving for p, Initial residual = 0.000717829, Final residual = 4.011084e-06, No Iterations 5
time step continuity errors : sum local = 3.854389e-05, global = -5.624646e-06, cumulative = 0.0001047889
DILUPBiCGStab:  Solving for epsilon, Initial residual = 6.48131e-05, Final residual = 4.908228e-06, No Iterations 1
DILUPBiCGStab:  Solving for k, Initial residual = 0.0003916781, Final residual = 3.129796e-05, No Iterations 1
ExecutionTime = 29.758 s  ClockTime = 30 s

forces forceMonitorOnPropellerInDefault write:
    Sum of forces
        Total    : (-10.99378 -2.351483 6.910284)
        Pressure : (-11.05029 -2.299433 6.822756)
        Viscous  : (0.05651869 -0.05204992 0.08752801)
    Sum of moments
        Total    : (1.014023 -5.390833 -0.2882473)
        Pressure : (0.9980864 -5.339575 -0.2480725)
        Viscous  : (0.01593679 -0.05125728 -0.04017482)
    writing force and moment files.

Time = 54

DILUPBiCGStab:  Solving for Ux, Initial residual = 0.0004981231, Final residual = 3.262348e-05, No Iterations 1
DILUPBiCGStab:  Solving for Uy, Initial residual = 0.001849823, Final residual = 0.0001315382, No Iterations 1
DILUPBiCGStab:  Solving for Uz, Initial residual = 0.001516846, Final residual = 6.1846e-05, No Iterations 1
GAMG:  Solving for p, Initial residual = 0.006825391, Final residual = 6.560354e-05, No Iterations 4
GAMG:  Solving for p, Initial residual = 0.0007096615, Final residual = 3.802123e-06, No Iterations 5
time step continuity errors : sum local = 3.619802e-05, global = -5.08369e-06, cumulative = 9.970522e-05
DILUPBiCGStab:  Solving for epsilon, Initial residual = 6.25334e-05, Final residual = 4.701023e-06, No Iterations 1
DILUPBiCGStab:  Solving for k, Initial residual = 0.0003685567, Final residual = 2.963689e-05, No Iterations 1
ExecutionTime = 30.415 s  ClockTime = 30 s

forces forceMonitorOnPropellerInDefault write:
    Sum of forces
        Total    : (-11.02453 -2.351076 6.92387)
        Pressure : (-11.08099 -2.299098 6.836554)
        Viscous  : (0.05646579 -0.05197721 0.08731563)
    Sum of moments
        Total    : (1.016254 -5.401638 -0.2834526)
        Pressure : (1.000341 -5.35051 -0.24333)
        Viscous  : (0.01591281 -0.05112732 -0.04012269)
    writing force and moment files.

Time = 55

DILUPBiCGStab:  Solving for Ux, Initial residual = 0.0004973377, Final residual = 3.245265e-05, No Iterations 1
DILUPBiCGStab:  Solving for Uy, Initial residual = 0.001850677, Final residual = 0.000131962, No Iterations 1
DILUPBiCGStab:  Solving for Uz, Initial residual = 0.001505175, Final residual = 6.130344e-05, No Iterations 1
GAMG:  Solving for p, Initial residual = 0.006777711, Final residual = 6.19509e-05, No Iterations 4
GAMG:  Solving for p, Initial residual = 0.0007021522, Final residual = 3.517934e-06, No Iterations 5
time step continuity errors : sum local = 3.321612e-05, global = -5.190699e-06, cumulative = 9.451452e-05
DILUPBiCGStab:  Solving for epsilon, Initial residual = 6.03726e-05, Final residual = 4.513561e-06, No Iterations 1
bounding epsilon, min: 6.722274e-16 max: 77037.45 average: 511.3283
DILUPBiCGStab:  Solving for k, Initial residual = 0.0003486201, Final residual = 2.823253e-05, No Iterations 1
ExecutionTime = 31.079 s  ClockTime = 31 s

forces forceMonitorOnPropellerInDefault write:
    Sum of forces
        Total    : (-11.04759 -2.349177 6.929702)
        Pressure : (-11.10395 -2.297307 6.842627)
        Viscous  : (0.05635464 -0.05187029 0.08707411)
    Sum of moments
        Total    : (1.01769 -5.407659 -0.2784627)
        Pressure : (1.001807 -5.356678 -0.2384209)
        Viscous  : (0.0158828 -0.05098117 -0.04004178)
    writing force and moment files.

Time = 56

DILUPBiCGStab:  Solving for Ux, Initial residual = 0.0004965888, Final residual = 3.230384e-05, No Iterations 1
DILUPBiCGStab:  Solving for Uy, Initial residual = 0.001849385, Final residual = 0.0001322271, No Iterations 1
DILUPBiCGStab:  Solving for Uz, Initial residual = 0.001492741, Final residual = 6.081796e-05, No Iterations 1
GAMG:  Solving for p, Initial residual = 0.006851622, Final residual = 6.828001e-05, No Iterations 4
GAMG:  Solving for p, Initial residual = 0.0007012084, Final residual = 3.526931e-06, No Iterations 5
time step continuity errors : sum local = 3.305451e-05, global = -4.947417e-06, cumulative = 8.956711e-05
DILUPBiCGStab:  Solving for epsilon, Initial residual = 5.837725e-05, Final residual = 4.346496e-06, No Iterations 1
bounding epsilon, min: 7.79184e-19 max: 78074.83 average: 526.5591
DILUPBiCGStab:  Solving for k, Initial residual = 0.0003312039, Final residual = 2.702574e-05, No Iterations 1
ExecutionTime = 31.836 s  ClockTime = 32 s

forces forceMonitorOnPropellerInDefault write:
    Sum of forces
        Total    : (-11.07911 -2.348774 6.943028)
        Pressure : (-11.13541 -2.297019 6.856168)
        Viscous  : (0.0562971 -0.05175515 0.08686007)
    Sum of moments
        Total    : (1.019977 -5.418811 -0.2736738)
        Pressure : (1.004124 -5.36796 -0.2337135)
        Viscous  : (0.01585367 -0.05085153 -0.03996026)
    writing force and moment files.

Time = 57

DILUPBiCGStab:  Solving for Ux, Initial residual = 0.0004956484, Final residual = 3.21126e-05, No Iterations 1
DILUPBiCGStab:  Solving for Uy, Initial residual = 0.00184674, Final residual = 0.0001324032, No Iterations 1
DILUPBiCGStab:  Solving for Uz, Initial residual = 0.001482174, Final residual = 6.043e-05, No Iterations 1
GAMG:  Solving for p, Initial residual = 0.00675343, Final residual = 6.155e-05, No Iterations 4
GAMG:  Solving for p, Initial residual = 0.000706736, Final residual = 6.995884e-06, No Iterations 4
time step continuity errors : sum local = 6.508237e-05, global = -9.170185e-06, cumulative = 8.039692e-05
DILUPBiCGStab:  Solving for epsilon, Initial residual = 5.654942e-05, Final residual = 4.198111e-06, No Iterations 1
bounding epsilon, min: 7.441779e-21 max: 79052.33 average: 540.0918
DILUPBiCGStab:  Solving for k, Initial residual = 0.0003157634, Final residual = 2.595804e-05, No Iterations 1
ExecutionTime = 32.435 s  ClockTime = 32 s

forces forceMonitorOnPropellerInDefault write:
    Sum of forces
        Total    : (-11.10364 -2.346971 6.949443)
        Pressure : (-11.15982 -2.295362 6.862798)
        Viscous  : (0.05617548 -0.05160856 0.08664507)
    Sum of moments
        Total    : (1.021552 -5.425675 -0.2686832)
        Pressure : (1.005731 -5.374952 -0.2288324)
        Viscous  : (0.01582127 -0.05072294 -0.03985081)
    writing force and moment files.

Time = 58

DILUPBiCGStab:  Solving for Ux, Initial residual = 0.0004947699, Final residual = 3.196031e-05, No Iterations 1
DILUPBiCGStab:  Solving for Uy, Initial residual = 0.001842086, Final residual = 0.000132343, No Iterations 1
DILUPBiCGStab:  Solving for Uz, Initial residual = 0.001471398, Final residual = 5.995547e-05, No Iterations 1
GAMG:  Solving for p, Initial residual = 0.006642988, Final residual = 6.044004e-05, No Iterations 4
GAMG:  Solving for p, Initial residual = 0.0007019099, Final residual = 6.715583e-06, No Iterations 4
time step continuity errors : sum local = 6.202325e-05, global = -8.650711e-06, cumulative = 7.174621e-05
DILUPBiCGStab:  Solving for epsilon, Initial residual = 5.490695e-05, Final residual = 4.070728e-06, No Iterations 1
DILUPBiCGStab:  Solving for k, Initial residual = 0.0003019132, Final residual = 2.500608e-05, No Iterations 1
ExecutionTime = 32.982 s  ClockTime = 33 s

forces forceMonitorOnPropellerInDefault write:
    Sum of forces
        Total    : (-11.14043 -2.347706 6.966666)
        Pressure : (-11.19657 -2.296219 6.880175)
        Viscous  : (0.05614108 -0.05148713 0.08649073)
    Sum of moments
        Total    : (1.024438 -5.439839 -0.2640966)
        Pressure : (1.008643 -5.389208 -0.2243314)
        Viscous  : (0.0157946 -0.05063036 -0.03976524)
    writing force and moment files.

Time = 59

DILUPBiCGStab:  Solving for Ux, Initial residual = 0.0004931351, Final residual = 3.179104e-05, No Iterations 1
DILUPBiCGStab:  Solving for Uy, Initial residual = 0.001836126, Final residual = 0.0001321884, No Iterations 1
DILUPBiCGStab:  Solving for Uz, Initial residual = 0.001460444, Final residual = 5.941177e-05, No Iterations 1
GAMG:  Solving for p, Initial residual = 0.00663571, Final residual = 5.920613e-05, No Iterations 4
GAMG:  Solving for p, Initial residual = 0.0006987536, Final residual = 6.051615e-06, No Iterations 4
time step continuity errors : sum local = 5.556598e-05, global = -8.502732e-06, cumulative = 6.324348e-05
DILUPBiCGStab:  Solving for epsilon, Initial residual = 5.345582e-05, Final residual = 3.961123e-06, No Iterations 1
DILUPBiCGStab:  Solving for k, Initial residual = 0.0002893717, Final residual = 2.414001e-05, No Iterations 1
ExecutionTime = 33.52 s  ClockTime = 33 s

forces forceMonitorOnPropellerInDefault write:
    Sum of forces
        Total    : (-11.16646 -2.346601 6.973938)
        Pressure : (-11.22249 -2.295269 6.887645)
        Viscous  : (0.05603922 -0.05133147 0.08629252)
    Sum of moments
        Total    : (1.026265 -5.447645 -0.2594226)
        Pressure : (1.010505 -5.397132 -0.2197726)
        Viscous  : (0.01576048 -0.05051268 -0.03965001)
    writing force and moment files.

Time = 60

DILUPBiCGStab:  Solving for Ux, Initial residual = 0.0004917757, Final residual = 3.164095e-05, No Iterations 1
DILUPBiCGStab:  Solving for Uy, Initial residual = 0.001828514, Final residual = 0.0001320091, No Iterations 1
DILUPBiCGStab:  Solving for Uz, Initial residual = 0.00144919, Final residual = 5.891106e-05, No Iterations 1
GAMG:  Solving for p, Initial residual = 0.006622729, Final residual = 6.174811e-05, No Iterations 4
GAMG:  Solving for p, Initial residual = 0.0006977767, Final residual = 5.715218e-06, No Iterations 4
time step continuity errors : sum local = 5.219012e-05, global = -7.638248e-06, cumulative = 5.560523e-05
DILUPBiCGStab:  Solving for epsilon, Initial residual = 5.216324e-05, Final residual = 3.865001e-06, No Iterations 1
DILUPBiCGStab:  Solving for k, Initial residual = 0.0002779225, Final residual = 2.334723e-05, No Iterations 1
ExecutionTime = 34.08 s  ClockTime = 34 s

forces forceMonitorOnPropellerInDefault write:
    Sum of forces
        Total    : (-11.1993 -2.346846 6.987595)
        Pressure : (-11.25529 -2.295673 6.90146)
        Viscous  : (0.05599388 -0.0511734 0.08613515)
    Sum of moments
        Total    : (1.028814 -5.459736 -0.2550089)
        Pressure : (1.013084 -5.409316 -0.2154705)
        Viscous  : (0.01572922 -0.05041936 -0.03953834)
    writing force and moment files.

Time = 61

DILUPBiCGStab:  Solving for Ux, Initial residual = 0.0004904524, Final residual = 3.147447e-05, No Iterations 1
DILUPBiCGStab:  Solving for Uy, Initial residual = 0.001820256, Final residual = 0.0001317568, No Iterations 1
DILUPBiCGStab:  Solving for Uz, Initial residual = 0.001439023, Final residual = 5.847173e-05, No Iterations 1
GAMG:  Solving for p, Initial residual = 0.006618755, Final residual = 5.973698e-05, No Iterations 4
GAMG:  Solving for p, Initial residual = 0.0007139009, Final residual = 5.150847e-06, No Iterations 4
time step continuity errors : sum local = 4.681057e-05, global = -5.379466e-06, cumulative = 5.022576e-05
DILUPBiCGStab:  Solving for epsilon, Initial residual = 5.096096e-05, Final residual = 3.777387e-06, No Iterations 1
DILUPBiCGStab:  Solving for k, Initial residual = 0.000267392, Final residual = 2.261017e-05, No Iterations 1
ExecutionTime = 34.625 s  ClockTime = 34 s

forces forceMonitorOnPropellerInDefault write:
    Sum of forces
        Total    : (-11.2256 -2.34592 6.994922)
        Pressure : (-11.28149 -2.294929 6.908962)
        Viscous  : (0.05589565 -0.05099161 0.08595964)
    Sum of moments
        Total    : (1.030694 -5.467799 -0.2505304)
        Pressure : (1.015 -5.417483 -0.2111252)
        Viscous  : (0.0156941 -0.05031627 -0.03940515)
    writing force and moment files.

Time = 62

DILUPBiCGStab:  Solving for Ux, Initial residual = 0.0004892709, Final residual = 3.133405e-05, No Iterations 1
DILUPBiCGStab:  Solving for Uy, Initial residual = 0.001810698, Final residual = 0.0001313123, No Iterations 1
DILUPBiCGStab:  Solving for Uz, Initial residual = 0.001428225, Final residual = 5.799404e-05, No Iterations 1
GAMG:  Solving for p, Initial residual = 0.006520351, Final residual = 5.89347e-05, No Iterations 4
GAMG:  Solving for p, Initial residual = 0.0007116528, Final residual = 4.951584e-06, No Iterations 4
time step continuity errors : sum local = 4.478706e-05, global = -1.837375e-06, cumulative = 4.838839e-05
DILUPBiCGStab:  Solving for epsilon, Initial residual = 4.980965e-05, Final residual = 3.694976e-06, No Iterations 1
DILUPBiCGStab:  Solving for k, Initial residual = 0.0002576431, Final residual = 2.191349e-05, No Iterations 1
ExecutionTime = 35.156 s  ClockTime = 35 s

forces forceMonitorOnPropellerInDefault write:
    Sum of forces
        Total    : (-11.26214 -2.347009 7.011821)
        Pressure : (-11.31802 -2.296167 6.92598)
        Viscous  : (0.05587818 -0.05084228 0.08584116)
    Sum of moments
        Total    : (1.033713 -5.482193 -0.2463206)
        Pressure : (1.018048 -5.431947 -0.2070205)
        Viscous  : (0.01566513 -0.05024681 -0.03930009)
    writing force and moment files.

Time = 63

DILUPBiCGStab:  Solving for Ux, Initial residual = 0.0004876158, Final residual = 3.115085e-05, No Iterations 1
DILUPBiCGStab:  Solving for Uy, Initial residual = 0.001799746, Final residual = 0.0001306709, No Iterations 1
DILUPBiCGStab:  Solving for Uz, Initial residual = 0.001417678, Final residual = 5.747271e-05, No Iterations 1
GAMG:  Solving for p, Initial residual = 0.006495236, Final residual = 5.633321e-05, No Iterations 4
GAMG:  Solving for p, Initial residual = 0.0007110658, Final residual = 4.859033e-06, No Iterations 4
time step continuity errors : sum local = 4.379348e-05, global = 2.996432e-06, cumulative = 5.138482e-05
[...]
time step continuity errors : sum local = 8.297302e-06, global = -3.710161e-07, cumulative = 5.293035e-05
DILUPBiCGStab:  Solving for epsilon, Initial residual = 9.161001e-07, Final residual = 9.161001e-07, No Iterations 0
DILUPBiCGStab:  Solving for k, Initial residual = 8.769256e-07, Final residual = 8.769256e-07, No Iterations 0
ExecutionTime = 525.995 s  ClockTime = 526 s

forces forceMonitorOnPropellerInDefault write:
    Sum of forces
        Total    : (-11.26062 -2.09423 6.938181)
        Pressure : (-11.3211 -2.04036 6.857642)
        Viscous  : (0.06048299 -0.05386983 0.0805383)
    Sum of moments
        Total    : (1.045785 -5.497989 -0.04343305)
        Pressure : (1.030403 -5.451332 -0.002191873)
        Viscous  : (0.01538253 -0.04665663 -0.04124118)
    writing force and moment files.

Time = 987

DILUPBiCGStab:  Solving for Ux, Initial residual = 2.684556e-05, Final residual = 1.053528e-06, No Iterations 1
DILUPBiCGStab:  Solving for Uy, Initial residual = 8.698199e-06, Final residual = 6.02598e-07, No Iterations 1
DILUPBiCGStab:  Solving for Uz, Initial residual = 7.432697e-06, Final residual = 5.56538e-07, No Iterations 1
GAMG:  Solving for p, Initial residual = 0.0001832314, Final residual = 1.119198e-06, No Iterations 6
GAMG:  Solving for p, Initial residual = 5.091249e-05, Final residual = 8.508826e-07, No Iterations 3
time step continuity errors : sum local = 7.713698e-06, global = -2.7637e-07, cumulative = 5.265398e-05
DILUPBiCGStab:  Solving for epsilon, Initial residual = 9.186277e-07, Final residual = 9.186277e-07, No Iterations 0
DILUPBiCGStab:  Solving for k, Initial residual = 8.775122e-07, Final residual = 8.775122e-07, No Iterations 0
ExecutionTime = 526.452 s  ClockTime = 526 s

forces forceMonitorOnPropellerInDefault write:
    Sum of forces
        Total    : (-11.2575 -2.09355 6.934755)
        Pressure : (-11.31796 -2.039671 6.854227)
        Viscous  : (0.06046437 -0.0538797 0.08052803)
    Sum of moments
        Total    : (1.045551 -5.495797 -0.04317104)
        Pressure : (1.030169 -5.449146 -0.001925033)
        Viscous  : (0.01538217 -0.04665059 -0.041246)
    writing force and moment files.

Time = 988

DILUPBiCGStab:  Solving for Ux, Initial residual = 2.689254e-05, Final residual = 1.04501e-06, No Iterations 1
DILUPBiCGStab:  Solving for Uy, Initial residual = 8.80308e-06, Final residual = 5.67693e-07, No Iterations 1
DILUPBiCGStab:  Solving for Uz, Initial residual = 7.589292e-06, Final residual = 5.858322e-07, No Iterations 1
GAMG:  Solving for p, Initial residual = 0.0001376027, Final residual = 8.186813e-07, No Iterations 7
GAMG:  Solving for p, Initial residual = 4.366734e-05, Final residual = 7.636038e-07, No Iterations 3
time step continuity errors : sum local = 6.92062e-06, global = -3.006716e-07, cumulative = 5.235331e-05
DILUPBiCGStab:  Solving for epsilon, Initial residual = 9.21959e-07, Final residual = 9.21959e-07, No Iterations 0
DILUPBiCGStab:  Solving for k, Initial residual = 8.782916e-07, Final residual = 8.782916e-07, No Iterations 0
ExecutionTime = 526.958 s  ClockTime = 527 s

forces forceMonitorOnPropellerInDefault write:
    Sum of forces
        Total    : (-11.26107 -2.094312 6.938685)
        Pressure : (-11.32155 -2.040439 6.858144)
        Viscous  : (0.06048547 -0.0538735 0.08054108)
    Sum of moments
        Total    : (1.045842 -5.498294 -0.04345722)
        Pressure : (1.030459 -5.451635 -0.002213466)
        Viscous  : (0.01538303 -0.04665825 -0.04124375)
    writing force and moment files.

Time = 989

DILUPBiCGStab:  Solving for Ux, Initial residual = 2.671416e-05, Final residual = 1.049858e-06, No Iterations 1
DILUPBiCGStab:  Solving for Uy, Initial residual = 8.476883e-06, Final residual = 5.44458e-07, No Iterations 1
DILUPBiCGStab:  Solving for Uz, Initial residual = 7.245839e-06, Final residual = 5.369467e-07, No Iterations 1
GAMG:  Solving for p, Initial residual = 0.0001693329, Final residual = 1.194597e-06, No Iterations 6
GAMG:  Solving for p, Initial residual = 4.505994e-05, Final residual = 8.687969e-07, No Iterations 3
time step continuity errors : sum local = 7.875894e-06, global = -1.228729e-07, cumulative = 5.223043e-05
DILUPBiCGStab:  Solving for epsilon, Initial residual = 9.244865e-07, Final residual = 9.244865e-07, No Iterations 0
DILUPBiCGStab:  Solving for k, Initial residual = 8.789671e-07, Final residual = 8.789671e-07, No Iterations 0
ExecutionTime = 527.472 s  ClockTime = 527 s

forces forceMonitorOnPropellerInDefault write:
    Sum of forces
        Total    : (-11.25702 -2.09345 6.934415)
        Pressure : (-11.31748 -2.03957 6.853887)
        Viscous  : (0.06046571 -0.05387981 0.08052751)
    Sum of moments
        Total    : (1.045499 -5.495545 -0.04318115)
        Pressure : (1.030117 -5.448895 -0.001934903)
        Viscous  : (0.01538218 -0.04665022 -0.04124624)
    writing force and moment files.

Time = 990

DILUPBiCGStab:  Solving for Ux, Initial residual = 2.677357e-05, Final residual = 1.037514e-06, No Iterations 1
DILUPBiCGStab:  Solving for Uy, Initial residual = 8.695887e-06, Final residual = 5.530825e-07, No Iterations 1
DILUPBiCGStab:  Solving for Uz, Initial residual = 7.471989e-06, Final residual = 5.804623e-07, No Iterations 1
GAMG:  Solving for p, Initial residual = 0.0001567375, Final residual = 1.338985e-06, No Iterations 6
GAMG:  Solving for p, Initial residual = 4.568947e-05, Final residual = 8.941823e-07, No Iterations 3
time step continuity errors : sum local = 8.104267e-06, global = -3.673295e-07, cumulative = 5.18631e-05
DILUPBiCGStab:  Solving for epsilon, Initial residual = 9.279855e-07, Final residual = 9.279855e-07, No Iterations 0
DILUPBiCGStab:  Solving for k, Initial residual = 8.798349e-07, Final residual = 8.798349e-07, No Iterations 0
ExecutionTime = 527.969 s  ClockTime = 528 s

forces forceMonitorOnPropellerInDefault write:
    Sum of forces
        Total    : (-11.26023 -2.094151 6.937982)
        Pressure : (-11.32071 -2.040279 6.857442)
        Viscous  : (0.06048434 -0.05387188 0.08053957)
    Sum of moments
        Total    : (1.045748 -5.497811 -0.04345997)
        Pressure : (1.030365 -5.451154 -0.002217337)
        Viscous  : (0.01538288 -0.04665732 -0.04124263)
    writing force and moment files.

Time = 991

DILUPBiCGStab:  Solving for Ux, Initial residual = 2.665567e-05, Final residual = 1.045755e-06, No Iterations 1
DILUPBiCGStab:  Solving for Uy, Initial residual = 8.613623e-06, Final residual = 5.970452e-07, No Iterations 1
DILUPBiCGStab:  Solving for Uz, Initial residual = 7.375353e-06, Final residual = 5.519834e-07, No Iterations 1
GAMG:  Solving for p, Initial residual = 0.0001808669, Final residual = 1.081007e-06, No Iterations 6
GAMG:  Solving for p, Initial residual = 5.001289e-05, Final residual = 8.256978e-07, No Iterations 3
time step continuity errors : sum local = 7.484533e-06, global = -2.803197e-07, cumulative = 5.158279e-05
DILUPBiCGStab:  Solving for epsilon, Initial residual = 9.304589e-07, Final residual = 9.304589e-07, No Iterations 0
DILUPBiCGStab:  Solving for k, Initial residual = 8.803839e-07, Final residual = 8.803839e-07, No Iterations 0
ExecutionTime = 528.455 s  ClockTime = 528 s

forces forceMonitorOnPropellerInDefault write:
    Sum of forces
        Total    : (-11.25727 -2.093501 6.934718)
        Pressure : (-11.31774 -2.039619 6.854188)
        Viscous  : (0.06046644 -0.05388123 0.08052978)
    Sum of moments
        Total    : (1.045529 -5.495723 -0.04320303)
        Pressure : (1.030147 -5.449072 -0.001955823)
        Viscous  : (0.01538256 -0.04665157 -0.0412472)
    writing force and moment files.

Time = 992

DILUPBiCGStab:  Solving for Ux, Initial residual = 2.669907e-05, Final residual = 1.037086e-06, No Iterations 1
DILUPBiCGStab:  Solving for Uy, Initial residual = 8.708305e-06, Final residual = 5.597735e-07, No Iterations 1
DILUPBiCGStab:  Solving for Uz, Initial residual = 7.519487e-06, Final residual = 5.804089e-07, No Iterations 1
GAMG:  Solving for p, Initial residual = 0.000135556, Final residual = 1.351286e-06, No Iterations 6
GAMG:  Solving for p, Initial residual = 4.273077e-05, Final residual = 8.755571e-07, No Iterations 3
time step continuity errors : sum local = 7.934514e-06, global = -4.479223e-07, cumulative = 5.113486e-05
DILUPBiCGStab:  Solving for epsilon, Initial residual = 9.338115e-07, Final residual = 9.338115e-07, No Iterations 0
DILUPBiCGStab:  Solving for k, Initial residual = 8.811818e-07, Final residual = 8.811818e-07, No Iterations 0
ExecutionTime = 528.939 s  ClockTime = 529 s

forces forceMonitorOnPropellerInDefault write:
    Sum of forces
        Total    : (-11.26061 -2.094221 6.938424)
        Pressure : (-11.32109 -2.040346 6.857881)
        Viscous  : (0.06048676 -0.05387557 0.08054235)
    Sum of moments
        Total    : (1.045799 -5.498076 -0.04347872)
        Pressure : (1.030416 -5.451417 -0.002233507)
        Viscous  : (0.01538338 -0.04665895 -0.04124521)
    writing force and moment files.

Time = 993

DILUPBiCGStab:  Solving for Ux, Initial residual = 2.652427e-05, Final residual = 1.041886e-06, No Iterations 1
DILUPBiCGStab:  Solving for Uy, Initial residual = 8.41576e-06, Final residual = 5.400947e-07, No Iterations 1
DILUPBiCGStab:  Solving for Uz, Initial residual = 7.178975e-06, Final residual = 5.301123e-07, No Iterations 1
GAMG:  Solving for p, Initial residual = 0.0001667879, Final residual = 1.100468e-06, No Iterations 6
GAMG:  Solving for p, Initial residual = 4.377286e-05, Final residual = 8.128479e-07, No Iterations 3
time step continuity errors : sum local = 7.36784e-06, global = -2.111634e-07, cumulative = 5.09237e-05
DILUPBiCGStab:  Solving for epsilon, Initial residual = 9.362752e-07, Final residual = 9.362752e-07, No Iterations 0
DILUPBiCGStab:  Solving for k, Initial residual = 8.818158e-07, Final residual = 8.818158e-07, No Iterations 0
ExecutionTime = 529.435 s  ClockTime = 529 s

forces forceMonitorOnPropellerInDefault write:
    Sum of forces
        Total    : (-11.25683 -2.09341 6.934417)
        Pressure : (-11.3173 -2.039528 6.853887)
        Viscous  : (0.06046793 -0.05388123 0.0805294)
    Sum of moments
        Total    : (1.045481 -5.495498 -0.04321601)
        Pressure : (1.030098 -5.448846 -0.001968627)
        Viscous  : (0.01538257 -0.04665128 -0.04124739)
    writing force and moment files.

Time = 994

DILUPBiCGStab:  Solving for Ux, Initial residual = 2.657818e-05, Final residual = 1.029256e-06, No Iterations 1
DILUPBiCGStab:  Solving for Uy, Initial residual = 8.611461e-06, Final residual = 5.452103e-07, No Iterations 1
DILUPBiCGStab:  Solving for Uz, Initial residual = 7.389952e-06, Final residual = 5.737692e-07, No Iterations 1
GAMG:  Solving for p, Initial residual = 0.0001541908, Final residual = 1.294528e-06, No Iterations 6
GAMG:  Solving for p, Initial residual = 4.449583e-05, Final residual = 8.63104e-07, No Iterations 3
time step continuity errors : sum local = 7.821775e-06, global = -4.014619e-07, cumulative = 5.052224e-05
DILUPBiCGStab:  Solving for epsilon, Initial residual = 9.398086e-07, Final residual = 9.398086e-07, No Iterations 0
DILUPBiCGStab:  Solving for k, Initial residual = 8.82708e-07, Final residual = 8.82708e-07, No Iterations 0
ExecutionTime = 530.207 s  ClockTime = 530 s

forces forceMonitorOnPropellerInDefault write:
    Sum of forces
        Total    : (-11.25979 -2.094063 6.937731)
        Pressure : (-11.32028 -2.040189 6.85719)
        Viscous  : (0.06048551 -0.053874 0.08054087)
    Sum of moments
        Total    : (1.045706 -5.4976 -0.04348673)
        Pressure : (1.030323 -5.450942 -0.002242626)
        Viscous  : (0.01538323 -0.04665804 -0.04124411)
    writing force and moment files.

Time = 995

DILUPBiCGStab:  Solving for Ux, Initial residual = 2.646144e-05, Final residual = 1.037443e-06, No Iterations 1
DILUPBiCGStab:  Solving for Uy, Initial residual = 8.551337e-06, Final residual = 5.914284e-07, No Iterations 1
DILUPBiCGStab:  Solving for Uz, Initial residual = 7.29791e-06, Final residual = 5.445592e-07, No Iterations 1
GAMG:  Solving for p, Initial residual = 0.0001778522, Final residual = 1.019958e-06, No Iterations 6
GAMG:  Solving for p, Initial residual = 4.859428e-05, Final residual = 7.858611e-07, No Iterations 3
time step continuity errors : sum local = 7.12259e-06, global = -2.923417e-07, cumulative = 5.02299e-05
DILUPBiCGStab:  Solving for epsilon, Initial residual = 9.422198e-07, Final residual = 9.422198e-07, No Iterations 0
DILUPBiCGStab:  Solving for k, Initial residual = 8.832094e-07, Final residual = 8.832094e-07, No Iterations 0
ExecutionTime = 531.005 s  ClockTime = 531 s

forces forceMonitorOnPropellerInDefault write:
    Sum of forces
        Total    : (-11.25712 -2.093464 6.934744)
        Pressure : (-11.31759 -2.039581 6.854213)
        Viscous  : (0.06046886 -0.05388254 0.08053181)
    Sum of moments
        Total    : (1.045513 -5.495691 -0.04323753)
        Pressure : (1.03013 -5.449039 -0.001989231)
        Viscous  : (0.01538296 -0.04665271 -0.0412483)
    writing force and moment files.

Time = 996

DILUPBiCGStab:  Solving for Ux, Initial residual = 2.650016e-05, Final residual = 1.028571e-06, No Iterations 1
DILUPBiCGStab:  Solving for Uy, Initial residual = 8.633673e-06, Final residual = 5.529831e-07, No Iterations 1
DILUPBiCGStab:  Solving for Uz, Initial residual = 7.42544e-06, Final residual = 5.732982e-07, No Iterations 1
GAMG:  Solving for p, Initial residual = 0.0001326801, Final residual = 1.267925e-06, No Iterations 6
GAMG:  Solving for p, Initial residual = 4.116221e-05, Final residual = 8.21907e-07, No Iterations 3
time step continuity errors : sum local = 7.447577e-06, global = -4.340935e-07, cumulative = 4.97958e-05
DILUPBiCGStab:  Solving for epsilon, Initial residual = 9.456024e-07, Final residual = 9.456024e-07, No Iterations 0
DILUPBiCGStab:  Solving for k, Initial residual = 8.840373e-07, Final residual = 8.840373e-07, No Iterations 0
ExecutionTime = 531.765 s  ClockTime = 532 s

forces forceMonitorOnPropellerInDefault write:
    Sum of forces
        Total    : (-11.2601 -2.094122 6.938105)
        Pressure : (-11.32059 -2.040244 6.857561)
        Viscous  : (0.06048771 -0.05387781 0.08054365)
    Sum of moments
        Total    : (1.045751 -5.497821 -0.04350115)
        Pressure : (1.030367 -5.451161 -0.002254419)
        Viscous  : (0.01538373 -0.04665967 -0.04124673)
    writing force and moment files.

Time = 997

DILUPBiCGStab:  Solving for Ux, Initial residual = 2.632791e-05, Final residual = 1.033235e-06, No Iterations 1
DILUPBiCGStab:  Solving for Uy, Initial residual = 8.36624e-06, Final residual = 5.361735e-07, No Iterations 1
DILUPBiCGStab:  Solving for Uz, Initial residual = 7.089744e-06, Final residual = 5.219511e-07, No Iterations 1
GAMG:  Solving for p, Initial residual = 0.0001641901, Final residual = 1.017413e-06, No Iterations 6
GAMG:  Solving for p, Initial residual = 4.209975e-05, Final residual = 7.638887e-07, No Iterations 3
time step continuity errors : sum local = 6.923233e-06, global = -2.132791e-07, cumulative = 4.958252e-05
DILUPBiCGStab:  Solving for epsilon, Initial residual = 9.480988e-07, Final residual = 9.480988e-07, No Iterations 0
DILUPBiCGStab:  Solving for k, Initial residual = 8.847059e-07, Final residual = 8.847059e-07, No Iterations 0
ExecutionTime = 532.546 s  ClockTime = 532 s

forces forceMonitorOnPropellerInDefault write:
    Sum of forces
        Total    : (-11.25672 -2.093378 6.934462)
        Pressure : (-11.31719 -2.039495 6.853931)
        Viscous  : (0.06047038 -0.05388246 0.08053147)
    Sum of moments
        Total    : (1.045467 -5.495479 -0.04324979)
        Pressure : (1.030084 -5.448827 -0.002001351)
        Viscous  : (0.01538298 -0.04665244 -0.04124844)
    writing force and moment files.

Time = 998

DILUPBiCGStab:  Solving for Ux, Initial residual = 2.638133e-05, Final residual = 1.020414e-06, No Iterations 1
DILUPBiCGStab:  Solving for Uy, Initial residual = 8.545066e-06, Final residual = 5.407866e-07, No Iterations 1
DILUPBiCGStab:  Solving for Uz, Initial residual = 7.295277e-06, Final residual = 5.67798e-07, No Iterations 1
GAMG:  Solving for p, Initial residual = 0.0001507285, Final residual = 1.201575e-06, No Iterations 6
GAMG:  Solving for p, Initial residual = 4.259821e-05, Final residual = 8.006037e-07, No Iterations 3
time step continuity errors : sum local = 7.254663e-06, global = -3.977023e-07, cumulative = 4.918482e-05
DILUPBiCGStab:  Solving for epsilon, Initial residual = 9.515536e-07, Final residual = 9.515536e-07, No Iterations 0
DILUPBiCGStab:  Solving for k, Initial residual = 8.855286e-07, Final residual = 8.855286e-07, No Iterations 0
ExecutionTime = 533.361 s  ClockTime = 533 s

forces forceMonitorOnPropellerInDefault write:
    Sum of forces
        Total    : (-11.25924 -2.093955 6.937348)
        Pressure : (-11.31972 -2.040079 6.856805)
        Viscous  : (0.0604861 -0.05387647 0.08054216)
    Sum of moments
        Total    : (1.045651 -5.497304 -0.04350766)
        Pressure : (1.030268 -5.450645 -0.002261919)
        Viscous  : (0.01538358 -0.04665876 -0.04124574)
    writing force and moment files.

Time = 999

DILUPBiCGStab:  Solving for Ux, Initial residual = 2.626499e-05, Final residual = 1.028556e-06, No Iterations 1
DILUPBiCGStab:  Solving for Uy, Initial residual = 8.501747e-06, Final residual = 5.878375e-07, No Iterations 1
DILUPBiCGStab:  Solving for Uz, Initial residual = 7.2088e-06, Final residual = 5.372803e-07, No Iterations 1
GAMG:  Solving for p, Initial residual = 0.0001745593, Final residual = 1.612941e-06, No Iterations 5
GAMG:  Solving for p, Initial residual = 4.584877e-05, Final residual = 8.172416e-07, No Iterations 3
time step continuity errors : sum local = 7.406066e-06, global = -3.842141e-07, cumulative = 4.880061e-05
DILUPBiCGStab:  Solving for epsilon, Initial residual = 9.541322e-07, Final residual = 9.541322e-07, No Iterations 0
DILUPBiCGStab:  Solving for k, Initial residual = 8.861688e-07, Final residual = 8.861688e-07, No Iterations 0
ExecutionTime = 534.179 s  ClockTime = 534 s

forces forceMonitorOnPropellerInDefault write:
    Sum of forces
        Total    : (-11.25718 -2.093464 6.934953)
        Pressure : (-11.31765 -2.039581 6.854419)
        Viscous  : (0.06047193 -0.05388368 0.08053443)
    Sum of moments
        Total    : (1.045514 -5.495779 -0.04327973)
        Pressure : (1.030131 -5.449125 -0.002030381)
        Viscous  : (0.01538341 -0.0466542 -0.04124935)
    writing force and moment files.

Time = 1000

DILUPBiCGStab:  Solving for Ux, Initial residual = 2.629674e-05, Final residual = 1.018937e-06, No Iterations 1
DILUPBiCGStab:  Solving for Uy, Initial residual = 8.536849e-06, Final residual = 5.469286e-07, No Iterations 1
DILUPBiCGStab:  Solving for Uz, Initial residual = 7.321977e-06, Final residual = 5.651296e-07, No Iterations 1
GAMG:  Solving for p, Initial residual = 0.0001310983, Final residual = 1.085763e-06, No Iterations 6
GAMG:  Solving for p, Initial residual = 3.807612e-05, Final residual = 7.033569e-07, No Iterations 3
time step continuity errors : sum local = 6.372793e-06, global = -4.714917e-07, cumulative = 4.832912e-05
DILUPBiCGStab:  Solving for epsilon, Initial residual = 9.57436e-07, Final residual = 9.57436e-07, No Iterations 0
DILUPBiCGStab:  Solving for k, Initial residual = 8.868966e-07, Final residual = 8.868966e-07, No Iterations 0
ExecutionTime = 535.053 s  ClockTime = 535 s

forces forceMonitorOnPropellerInDefault write:
    Sum of forces
        Total    : (-11.25933 -2.093971 6.937501)
        Pressure : (-11.31982 -2.040091 6.856956)
        Viscous  : (0.06048766 -0.05388082 0.08054468)
    Sum of moments
        Total    : (1.045676 -5.497383 -0.04351155)
        Pressure : (1.030292 -5.450723 -0.002262908)
        Viscous  : (0.01538406 -0.04666023 -0.04124864)
    writing force and moment files.

End

